1
    SWAT Feb 21 2013    VER 2012/Rev 588                                                                 0/ 0/   0      0: 0: 0

    General Input/Output section (file.cio):                                        
    5/16/2013 12:00:00 AM ARCGIS-SWAT interface AV                                  
                                                                                    


LULC  HRU       GIS  SUB  MGT  MON   AREAkm2  PRECIPmm SNOFALLmm SNOMELTmm     IRRmm     PETmm      ETmm SW_INITmm  SW_ENDmm    PERCmm GW_RCHGmm DA_RCHGmm   REVAPmm  SA_IRRmm  DA_IRRmm   SA_STmm   DA_STmmSURQ_GENmmSURQ_CNTmm   TLOSSmm LATQGENmm    GW_Qmm    WYLDmm   DAILYCN TMP_AVdgC TMP_MXdgC TMP_MNdgCSOL_TMPdgCSOLARMJ/m2  SYLDt/ha  USLEt/haN_APPkg/haP_APPkg/haNAUTOkg/haPAUTOkg/ha NGRZkg/ha PGRZkg/haNCFRTkg/haPCFRTkg/haNRAINkg/ha NFIXkg/ha F-MNkg/ha A-MNkg/ha A-SNkg/ha F-MPkg/haAO-LPkg/ha L-APkg/ha A-SPkg/ha DNITkg/ha  NUPkg/ha  PUPkg/ha ORGNkg/ha ORGPkg/ha SEDPkg/haNSURQkg/haNLATQkg/ha NO3Lkg/haNO3GWkg/ha SOLPkg/ha P_GWkg/ha    W_STRS  TMP_STRS    N_STRS    P_STRS  BIOMt/ha       LAI   YLDt/ha  BACTPct   BACTLPct WTAB CLIm WTAB SOLm     SNOmm CMUPkg/haCMTOTkg/ha   QTILEmm TNO3kg/ha LNO3kg/ha  GW_Q_Dmm LATQCNTmm
CORN    1 000010001    1    0 1995.19536E+01   932.600    73.300    50.700     0.000  1101.500   686.638   315.150   329.785   182.954   182.463     9.123   110.566     0.000     0.000     1.000  1009.123     9.926     9.926     0.000     3.398    62.275    75.599    60.397    11.012    17.093     4.931    10.680    15.046     0.657     2.385    13.860    28.854     0.000     0.000     0.000     0.000     0.000     0.000     9.100     0.000     3.926    13.468    -1.004     1.439     2.309    63.380   200.094     3.718    48.987    17.202     4.371     0.536     0.440     0.172     0.104    17.870     5.871     0.003     0.000     0.000    21.737    59.633     0.035     8.155     2.996     3.025 .00000E+00 .00000E+00 0.240E+01 0.000E+00 0.223E+02 0.000E+00 0.000E+00 0.000E+00 0.000E+00 0.104E+00     0.000     3.398
CORN    2 000010002    1    0 1995.19434E+01   932.600    73.300    50.700     0.000  1101.500   677.794   306.297   316.345     0.000     0.000     0.000     0.000     0.000     0.000     0.500  1000.000     9.763     9.763     0.000     0.449     0.000   218.844    59.471    11.012    17.093     4.931    10.678    15.046     0.225     0.593    13.860    28.854     0.000     0.000     0.000     0.000     0.000     0.000     9.100     0.000     3.892    13.391    -0.998     1.427     2.296    63.460   200.126     3.904    48.561    17.054     2.194     0.269     0.221     0.159     0.014     0.000     0.000     0.003     0.000     0.000    21.737    59.470     0.035     8.085     2.974     2.998 .00000E+00 .00000E+00 0.240E+01 0.000E+00 0.223E+02 0.000E+00 0.000E+00 0.209E+03 0.184E+02 0.140E-01     0.000     0.449
CORN    3 000010003    1    0 1995.25364E+01   932.600    73.300    50.700     0.000  1101.500   598.468   150.920   178.522     0.054     0.054     0.003     0.000     0.000     0.000     0.551  1000.000    10.870    10.871     0.000     1.349     0.000   283.566    57.067    11.012    17.093     4.931    10.366    15.046     0.134     0.218    13.860    28.854     0.000     0.000     0.000     0.000     0.000     0.000     9.100     0.000     4.885    11.538    -0.805     1.781     1.979    24.167    66.474     3.988    60.783    21.172     2.397     0.294     0.205     0.137     0.302     0.073     0.000     0.003     0.000     1.848    21.737    59.668     0.035    10.037     2.616     3.720 .00000E+00 .00000E+00 0.240E+01 0.000E+00 0.223E+02 0.000E+00 0.000E+00 0.271E+03 0.133E+02 0.302E+00     0.000     1.349
CORN    4 000010004    1    0 1995.28895E+01   932.600    73.300    50.700     0.000  1101.500   598.656   150.829   178.489     0.053     0.053     0.003     0.000     0.000     0.000     0.550  1000.000    10.864    10.864     0.000     3.102     0.000   283.295    57.066    11.012    17.093     4.931    10.367    15.046     0.277     0.664    13.860    28.854     0.000     0.000     0.000     0.000     0.000     0.000     9.100     0.000     4.789    11.545    -0.806     1.747     1.980    24.543    66.793     3.970    59.563    20.761     4.046     0.496     0.345     0.137     0.680     0.070     0.000     0.003     0.000     1.783    21.737    60.202     0.035     9.842     2.610     3.648 .00000E+00 .00000E+00 0.240E+01 0.000E+00 0.223E+02 0.000E+00 0.000E+00 0.269E+03 0.133E+02 0.680E+00     0.000     3.102
SOYB    5 000020001    2    0 1995.19595E+01   932.600    73.300    50.700     0.000  1101.500   638.645   140.086   166.619     0.051     0.051     0.003     0.000     0.000     0.000     0.548  1000.000    10.968    10.968     0.000     3.004     0.000   255.243    57.309    11.012    17.093     4.931    10.364    15.046     0.265     0.665   223.860     0.000     0.000     0.000     0.000     0.000     0.000     0.000     9.100    97.291    12.745    10.867    -0.766     3.013     1.864   -15.705    33.632     4.742   155.983    36.872     3.914     0.480     0.334     0.200     0.685     0.070     0.000     0.003     0.000     3.007    15.112     0.000     0.000    13.613     3.812     3.260 .00000E+00 .00000E+00 0.240E+01 0.000E+00 0.223E+02 0.000E+00 0.000E+00 0.241E+03 0.143E+02 0.685E+00     0.000     3.004
SOYB    6 000020002    2    0 1995.17370E+01   932.600    73.300    50.700     0.000  1101.500   638.670   140.185   166.803     0.052     0.052     0.003     0.000     0.000     0.000     0.549  1000.000    10.975    10.975     0.000     1.307     0.000   255.114    57.315    11.012    17.093     4.931    10.364    15.046     0.128     0.218   223.860     0.000     0.000     0.000     0.000     0.000     0.000     0.000     9.100    96.724    12.799    10.862    -0.765     3.013     1.863   -15.713    33.619     4.763   156.641    36.874     2.316     0.284     0.198     0.200     0.304     0.073     0.000     0.003     0.000     3.004    15.112     0.000     0.000    13.614     3.812     3.260 .00000E+00 .00000E+00 0.240E+01 0.000E+00 0.223E+02 0.000E+00 0.000E+00 0.243E+03 0.143E+02 0.304E+00     0.000     1.307
SOYB    7 000020003    2    0 1995.14689E+01   932.600    73.300    50.700     0.000  1101.500   639.761   137.774   165.772   236.998   236.575    11.829   123.951     0.000     0.000     1.000  1011.829    10.959    10.959     0.000     6.887   100.296   118.142    57.276    11.012    17.093     4.931    10.363    15.046     1.601     2.653   223.860     0.000     0.000     0.000     0.000     0.000     0.000     0.000     9.100    97.397    10.001    10.848    -0.773     3.012     1.860   -15.583    33.770     3.841   122.402    36.865    12.384     1.517     1.056     0.183     0.265    50.253    19.613     0.003     0.000     3.019    15.112     0.000     0.000    13.611     3.812     3.259 .00000E+00 .00000E+00 0.240E+01 0.000E+00 0.223E+02 0.000E+00 0.000E+00 0.000E+00 0.000E+00 0.265E+00     0.000     6.887
CORN    8 000030001    3    0 1995.32211E+01   932.600    73.300    50.700     0.000  1101.500   593.674   150.932   177.551   265.846   258.380    12.919   132.819     0.000     0.000     1.035  1012.919    10.841    10.841     0.000    12.417   112.107   135.365    56.941    11.012    17.093     4.931    10.514    15.046     1.458     2.585    13.860    28.854     0.000     0.000     0.000     0.000     0.000     0.000     9.100     0.000     2.100    11.689    -0.819     0.772     2.004    35.129    75.645     3.172    26.064     9.110    12.218     1.497     1.043     0.128     0.418    48.630    18.926     0.003     0.000     0.000    21.737    74.159     0.035     4.321     2.230     1.599 .00000E+00 .00000E+00 0.240E+01 0.000E+00 0.223E+02 0.000E+00 0.000E+00 0.000E+00 0.000E+00 0.418E+00     0.000    12.417
CORN    9 000030002    3    0 1995.19186E+01   932.600    73.300    50.700     0.000  1101.500   598.678   150.819   178.485     0.053     0.053     0.003     0.000     0.000     0.000     0.550  1000.000    10.861    10.861     0.000     3.318     0.000   283.262    57.065    11.012    17.093     4.931    10.367    15.046     0.306     0.710    13.860    28.854     0.000     0.000     0.000     0.000     0.000     0.000     9.100     0.000     4.778    11.545    -0.806     1.743     1.980    24.587    66.831     3.965    59.416    20.711     4.205     0.515     0.359     0.137     0.725     0.070     0.000     0.003     0.000     1.775    21.737    60.266     0.035     9.818     2.609     3.639 .00000E+00 .00000E+00 0.240E+01 0.000E+00 0.223E+02 0.000E+00 0.000E+00 0.269E+03 0.133E+02 0.725E+00     0.000     3.318
SOYB   10 000040001    4    0 1995.89838E+00   932.600    73.300    50.700     0.000  1101.500   677.255   228.032   242.615   197.810   197.424     9.871   113.346     0.000     0.000     1.000  1009.872     9.327     9.327     0.000    15.687    73.707    98.722    58.670    11.012    17.093     4.931    10.874    15.046     2.155     3.343   223.860     0.000     0.000     0.000     0.000     0.000     0.000     0.000     9.100    93.694    10.862    14.652    -1.037     3.138     2.513   -14.876    34.276     6.967   131.783    38.077    14.593     1.788     1.134     0.201     0.624    37.373    12.928     0.003     0.000     0.000    15.112     0.000     0.000    14.058     3.824     3.376 .00000E+00 .00000E+00 0.240E+01 0.000E+00 0.223E+02 0.000E+00 0.000E+00 0.000E+00 0.000E+00 0.624E+00     0.000    15.687
SOYB   11 000040002    4    0 1995.81848E+00   932.600    73.300    50.700     0.000  1101.500   674.804   229.001   245.021     0.017     0.017     0.001     0.000     0.000     0.000     0.516  1000.000     9.328     9.328     0.000     2.233     0.000   222.848    58.622    11.012    17.093     4.931    10.876    15.046     0.277     0.724   223.860     0.000     0.000     0.000     0.000     0.000     0.000     0.000     9.100    90.686    12.052    14.674    -1.035     3.138     2.516   -14.978    34.152     7.293   146.230    38.077     3.903     0.478     0.303     0.213     0.151     0.006     0.000     0.003     0.000     0.000    15.112     0.000     0.000    14.058     3.824     3.376 .00000E+00 .00000E+00 0.240E+01 0.000E+00 0.223E+02 0.000E+00 0.000E+00 0.211E+03 0.211E+02 0.151E+00     0.000     2.233
SOYB   12 000040003    4    0 1995.79894E+00   932.600    73.300    50.700     0.000  1101.500   674.819   229.062   245.203     0.017     0.017     0.001     0.000     0.000     0.000     0.516  1000.000     9.335     9.335     0.000     0.961     0.000   222.657    58.627    11.012    17.093     4.931    10.876    15.046     0.120     0.397   223.860     0.000     0.000     0.000     0.000     0.000     0.000     0.000     9.100    90.510    12.055    14.676    -1.035     3.138     2.517   -14.982    34.143     7.295   146.262    38.077     2.289     0.280     0.178     0.213     0.066     0.006     0.000     0.003     0.000     0.000    15.112     0.000     0.000    14.058     3.824     3.376 .00000E+00 .00000E+00 0.240E+01 0.000E+00 0.223E+02 0.000E+00 0.000E+00 0.212E+03 0.211E+02 0.655E-01     0.000     0.961
CORN   13 000050001    5    0 1995.20681E+01   932.600    73.300    50.700     0.000  1101.500   661.817   232.133   258.556     0.017     0.017     0.001     0.000     0.000     0.000     0.516  1000.000     9.346     9.346     0.000     0.978     0.000   222.306    58.639    11.012    17.093     4.931    10.727    15.046     0.120     0.399    13.860    28.854     0.000     0.000     0.000     0.000     0.000     0.000     9.100     0.000     4.630    14.912    -1.051     1.687     2.557    27.615    69.137     5.741    55.989    19.535     2.321     0.284     0.180     0.159     0.064     0.006     0.000     0.003     0.000     0.000    21.737    59.274     0.035     9.261     2.981     3.435 .00000E+00 .00000E+00 0.240E+01 0.000E+00 0.223E+02 0.000E+00 0.000E+00 0.212E+03 0.200E+02 0.638E-01     0.000     0.978
CORN   14 000050002    5    0 1995.12162E+01   932.600    73.300    50.700     0.000  1101.500   661.749   232.095   258.399     0.017     0.017     0.001     0.000     0.000     0.000     0.516  1000.000     9.334     9.334     0.000     2.272     0.000   222.522    58.633    11.012    17.093     4.931    10.727    15.046     0.269     0.724    13.860    28.854     0.000     0.000     0.000     0.000     0.000     0.000     9.100     0.000     4.614    14.911    -1.051     1.681     2.557    27.683    69.199     5.739    55.783    19.464     3.951     0.484     0.307     0.159     0.147     0.006     0.000     0.003     0.000     0.000    21.737    59.355     0.035     9.228     2.979     3.422 .00000E+00 .00000E+00 0.240E+01 0.000E+00 0.223E+02 0.000E+00 0.000E+00 0.211E+03 0.199E+02 0.147E+00     0.000     2.272
CORN   15 000060001    6    0 1995.17590E+01   932.600    73.300    50.700     0.000  1101.500   598.678   150.819   178.485     0.053     0.053     0.003     0.000     0.000     0.000     0.550  1000.000    10.860    10.861     0.000     3.318     0.000   283.262    57.065    11.012    17.093     4.931    10.367    15.046     0.310     0.710    13.860    28.854     0.000     0.000     0.000     0.000     0.000     0.000     9.100     0.000     4.778    11.545    -0.806     1.743     1.980    24.587    66.831     3.965    59.417    20.711     4.203     0.515     0.359     0.137     0.725     0.070     0.000     0.003     0.000     1.775    21.737    60.266     0.035     9.818     2.609     3.639 .00000E+00 .00000E+00 0.240E+01 0.000E+00 0.223E+02 0.000E+00 0.000E+00 0.269E+03 0.133E+02 0.725E+00     0.000     3.318
CORN   16 000060002    6    0 1995.30155E+01   932.600    73.300    50.700     0.000  1101.500   593.382   151.273   177.550   272.453   264.511    13.226   133.708     0.000     0.000     1.035  1013.226    10.844    10.845     0.000     6.066   117.042   133.953    56.951    11.012    17.093     4.931    10.520    15.046     1.042     2.101    13.860    28.854     0.000     0.000     0.000     0.000     0.000     0.000     9.100     0.000     2.090    11.703    -0.819     0.768     2.007    35.168    75.669     3.165    25.935     9.063    10.019     1.227     0.855     0.128     0.209    49.421    19.551     0.003     0.000     0.000    21.737    74.266     0.035     4.298     2.225     1.591 .00000E+00 .00000E+00 0.240E+01 0.000E+00 0.223E+02 0.000E+00 0.000E+00 0.000E+00 0.000E+00 0.209E+00     0.000     6.066
CORN   17 000070001    7    0 1995.27500E-02   932.600    73.300    50.700     0.000  1101.500   665.936   208.317   189.459    43.595    43.500     2.175    38.573     0.000     0.000     1.000  1002.175     9.036     9.037     0.000   234.674     2.252   245.963    57.390    11.012    17.093     4.931    10.639    15.046     5.295     7.424    13.860    28.854     0.000     0.000     0.000     0.000     0.000     0.000     9.100     0.000     3.925    14.293    -1.018     1.437     2.451    29.944    71.073     5.929    48.118    16.875    23.787     2.914     1.850     0.120     6.598     7.869     0.301     0.003     0.000     0.000    21.737    60.619     0.035     8.000     2.984     2.967 .00000E+00 .00000E+00 0.240E+01 0.000E+00 0.223E+02 0.000E+00 0.000E+00 0.000E+00 0.000E+00 0.660E+01     0.000   234.674
SOYB   18 000080001    8    0 1995.32265E+01   932.600    73.300    50.700     0.000  1101.500   674.819   229.062   245.203     0.017     0.017     0.001     0.000     0.000     0.000     0.516  1000.000     9.341     9.341     0.000     0.961     0.000   222.656    58.627    11.012    17.093     4.931    10.876    15.046     0.127     0.399   223.860     0.000     0.000     0.000     0.000     0.000     0.000     0.000     9.100    90.510    12.055    14.676    -1.035     3.138     2.517   -14.982    34.144     7.295   146.262    38.077     2.430     0.298     0.189     0.214     0.066     0.006     0.000     0.003     0.000     0.000    15.112     0.000     0.000    14.058     3.824     3.376 .00000E+00 .00000E+00 0.240E+01 0.000E+00 0.223E+02 0.000E+00 0.000E+00 0.212E+03 0.211E+02 0.655E-01     0.000     0.961
SOYB   19 000080002    8    0 1995.17253E+01   932.600    73.300    50.700     0.000  1101.500   674.804   229.001   245.021     0.017     0.017     0.001     0.000     0.000     0.000     0.516  1000.000     9.329     9.329     0.000     2.233     0.000   222.848    58.622    11.012    17.093     4.931    10.876    15.046     0.291     0.724   223.860     0.000     0.000     0.000     0.000     0.000     0.000     0.000     9.100    90.686    12.052    14.673    -1.035     3.138     2.516   -14.978    34.153     7.293   146.230    38.077     4.123     0.505     0.321     0.213     0.151     0.006     0.000     0.003     0.000     0.000    15.112     0.000     0.000    14.058     3.824     3.376 .00000E+00 .00000E+00 0.240E+01 0.000E+00 0.223E+02 0.000E+00 0.000E+00 0.211E+03 0.211E+02 0.151E+00     0.000     2.233
CORN   20 000090001    9    0 1995.10414E+00   932.600    73.300    50.700     0.000  1101.500   700.387   250.879   260.287     0.000     0.000     0.000     0.000     0.000     0.000     0.500  1000.000     9.457     9.457     0.000     1.809     0.000   209.539    58.958    11.012    17.093     4.931    10.563    15.046     0.311     1.045    13.860    28.854     0.000     0.000     0.000     0.000     0.000     0.000     9.100     0.000     5.049    11.961    -0.839     1.850     2.051    32.884    93.568     4.840    60.939    21.384     2.893     0.355     0.253     0.168     0.069     0.000     0.000     0.003     0.000     0.000    21.737    55.888     0.035    10.137     3.432     3.760 .00000E+00 .00000E+00 0.240E+01 0.000E+00 0.223E+02 0.000E+00 0.000E+00 0.198E+03 0.149E+02 0.695E-01     0.000     1.809
CORN   21 000090002    9    0 1995.16522E+00   932.600    73.300    50.700     0.000  1101.500   700.409   250.913   260.395     0.000     0.000     0.000     0.000     0.000     0.000     0.500  1000.000     9.465     9.465     0.000     0.777     0.000   209.413    58.962    11.012    17.093     4.931    10.563    15.046     0.135     0.571    13.860    28.854     0.000     0.000     0.000     0.000     0.000     0.000     9.100     0.000     5.056    11.962    -0.839     1.852     2.051    32.853    93.538     4.842    61.028    21.414     1.743     0.214     0.153     0.169     0.030     0.000     0.000     0.003     0.000     0.000    21.737    55.851     0.035    10.151     3.433     3.765 .00000E+00 .00000E+00 0.240E+01 0.000E+00 0.223E+02 0.000E+00 0.000E+00 0.199E+03 0.149E+02 0.299E-01     0.000     0.777
CORN   22 000090003    9    0 1995.17385E+00   932.600    73.300    50.700     0.000  1101.500   661.815   232.133   258.557     0.017     0.017     0.001     0.000     0.000     0.000     0.516  1000.000     9.337     9.337     0.000     0.978     0.000   222.306    58.639    11.012    17.093     4.931    10.727    15.046     0.109     0.397    13.860    28.854     0.000     0.000     0.000     0.000     0.000     0.000     9.100     0.000     4.630    14.912    -1.051     1.687     2.557    27.615    69.135     5.741    55.989    19.535     2.047     0.251     0.159     0.159     0.064     0.006     0.000     0.003     0.000     0.000    21.737    59.274     0.035     9.261     2.981     3.435 .00000E+00 .00000E+00 0.240E+01 0.000E+00 0.223E+02 0.000E+00 0.000E+00 0.212E+03 0.200E+02 0.638E-01     0.000     0.978
CORN   23 000090004    9    0 1995.11436E+00   932.600    73.300    50.700     0.000  1101.500   651.854   236.395   265.655   188.711   188.343     9.417   110.909     0.000     0.000     1.000  1009.417     9.313     9.313     0.000    27.155    67.517   103.984    58.717    11.012    17.093     4.931    10.764    15.046     4.938     5.381    13.860    28.854     0.000     0.000     0.000     0.000     0.000     0.000     9.100     0.000     3.113    14.969    -1.056     1.135     2.567    33.329    73.978     5.482    38.165    13.321    24.363     2.985     1.894     0.145     1.001    35.230    11.699     0.003     0.000     0.000    21.737    66.305     0.035     6.316     2.679     2.342 .00000E+00 .00000E+00 0.240E+01 0.000E+00 0.223E+02 0.000E+00 0.000E+00 0.000E+00 0.000E+00 0.100E+01     0.000    27.155
BERM   24 000100001   10    0 1995.14084E+01   932.600    73.300    50.700     0.000  1101.500   618.530   225.554   206.719    95.167    94.937     4.747    73.006     0.000     0.000     1.000  1004.747   218.273   218.273     0.000     4.003    16.684   238.959    68.543    11.012    17.093     4.931    10.929    15.046     9.389    10.540     0.000     0.000     0.000     0.000     0.000     0.000     0.000     0.000     9.100     0.000     0.000    14.157    -1.053     0.000     2.428     4.388    50.726     6.250    56.452    15.900    72.538     8.909     9.029     2.109     0.145    17.856     2.741     0.053     0.000     0.000    23.764    93.569     0.212     0.833     1.665     0.000 .00000E+00 .00000E+00 0.242E+01 0.000E+00 0.223E+02 0.000E+00 0.000E+00 0.000E+00 0.000E+00 0.145E+00     0.000     4.003
BERM   25 000100002   10    0 1995.93588E+00   932.600    73.300    50.700     0.000  1101.500   618.612   225.760   207.247    97.340    97.106     4.855    74.052     0.000     0.000     1.000  1004.855   218.388   218.388     0.000     1.106    17.699   237.193    68.570    11.012    17.093     4.931    10.929    15.046     2.370     3.424     0.000     0.000     0.000     0.000     0.000     0.000     0.000     0.000     9.100     0.000     0.000    14.219    -1.057     0.000     2.438     4.270    50.466     6.248    56.377    15.878    31.084     3.843     3.825     2.117     0.040    18.290     2.919     0.063     0.000     0.000    23.764    93.604     0.212     0.832     1.664     0.000 .00000E+00 .00000E+00 0.242E+01 0.000E+00 0.223E+02 0.000E+00 0.000E+00 0.000E+00 0.000E+00 0.404E-01     0.000     1.106
BERM   26 000100003   10    0 1995.15084E+01   932.600    73.300    50.700     0.000  1101.500   622.004   194.939   176.253    96.109    95.882     4.794    73.372     0.000     0.000     1.000  1004.794   218.095   218.095     0.000     4.138    17.216   239.449    68.297    11.012    17.093     4.931    10.652    15.046    10.417    11.880     0.000     0.000     0.000     0.000     0.000     0.000     0.000     0.000     9.100     0.000     0.000    12.189    -0.903     0.000     2.090     6.845    59.513     5.740    51.544    14.529    57.610     7.078     8.072     2.133     0.153    23.175     3.673     0.051     0.000     0.000    23.764    95.835     0.212     0.761     1.599     0.000 .00000E+00 .00000E+00 0.242E+01 0.000E+00 0.223E+02 0.000E+00 0.000E+00 0.000E+00 0.000E+00 0.153E+00     0.000     4.138
BERM   27 000100004   10    0 1995.10051E+01   932.600    73.300    50.700     0.000  1101.500   622.009   195.212   176.956    98.323    98.091     4.905    74.487     0.000     0.000     1.000  1004.904   218.209   218.209     0.000     1.150    18.199   237.558    68.326    11.012    17.093     4.931    10.653    15.046     2.743     3.995     0.000     0.000     0.000     0.000     0.000     0.000     0.000     0.000     9.100     0.000     0.000    12.248    -0.906     0.000     2.100     6.747    59.316     5.736    51.402    14.488    25.493     3.155     3.524     2.141     0.043    23.694     3.890     0.060     0.000     0.000    23.764    95.903     0.212     0.759     1.596     0.000 .00000E+00 .00000E+00 0.242E+01 0.000E+00 0.223E+02 0.000E+00 0.000E+00 0.000E+00 0.000E+00 0.434E-01     0.000     1.150
CORN   28 000110001   11    0 1995.25318E+01   932.600    73.300    50.700     0.000  1101.500   592.182   129.777   151.303   280.322   270.388    13.519   133.921     0.000     0.000     1.035  1013.519    10.838    10.838     0.000     5.602   122.413   138.852    56.977    11.012    17.093     4.931     9.960    15.046     1.041     2.621    13.860    28.854     0.000     0.000     0.000     0.000     0.000     0.000     9.100     0.000     1.550     7.020    -0.490     0.578     1.204    41.621    96.594     2.002    19.491     6.869     5.358     0.656     0.664     0.121     0.088    61.159    24.245     0.003     0.000     1.457    21.737    79.776     0.035     3.258     2.016     1.203 .00000E+00 .00000E+00 0.240E+01 0.000E+00 0.223E+02 0.000E+00 0.000E+00 0.000E+00 0.000E+00 0.881E-01     0.000     5.602
SOYB   29 000120001   12    0 1995.39257E+01   932.600    73.300    50.700     0.000  1101.500   678.259   310.191   318.789     0.000     0.000     0.000     0.000     0.000     0.000     0.500  1000.000     9.778     9.778     0.000     0.437     0.000   215.953    59.429    11.012    17.093     4.931    10.858    15.046     0.201     0.577   223.860     0.000     0.000     0.000     0.000     0.000     0.000     0.000     9.100    86.350    11.099    13.408    -0.992     3.122     2.299    18.860   162.315     5.113   135.359    38.077     2.199     0.269     0.221     0.210     0.015     0.000     0.000     0.003     0.000     0.000    15.112     0.000     0.000    14.058     3.824     3.376 .00000E+00 .00000E+00 0.240E+01 0.000E+00 0.223E+02 0.000E+00 0.000E+00 0.206E+03 0.189E+02 0.152E-01     0.000     0.437
SOYB   30 000120002   12    0 1995.60934E+01   932.600    73.300    50.700     0.000  1101.500   684.181   319.145   331.462   183.822   183.324     9.166   111.071     0.000     0.000     1.000  1009.166     9.924     9.924     0.000     3.359    62.587    75.870    60.282    11.012    17.093     4.931    10.862    15.046     0.481     3.008   223.860     0.000     0.000     0.000     0.000     0.000     0.000     0.000     9.100    86.345    10.998    13.509    -0.999     3.122     2.316    18.896   162.361     4.822   134.128    38.077     4.211     0.516     0.424     0.230     0.117    20.102     6.343     0.003     0.000     0.000    15.112     0.000     0.000    14.058     3.824     3.376 .00000E+00 .00000E+00 0.240E+01 0.000E+00 0.223E+02 0.000E+00 0.000E+00 0.000E+00 0.000E+00 0.117E+00     0.000     3.359
CORN   31 000130001   13    0 1995.11238E+00   932.600    73.300    50.700     0.000  1101.500   661.816   232.133   258.556     0.017     0.017     0.001     0.000     0.000     0.000     0.516  1000.000     9.339     9.339     0.000     0.978     0.000   222.306    58.639    11.012    17.093     4.931    10.727    15.046     0.097     0.397    13.860    28.854     0.000     0.000     0.000     0.000     0.000     0.000     9.100     0.000     4.630    14.912    -1.051     1.687     2.557    27.614    69.135     5.741    55.989    19.535     1.908     0.234     0.148     0.159     0.064     0.006     0.000     0.003     0.000     0.000    21.737    59.274     0.035     9.261     2.981     3.435 .00000E+00 .00000E+00 0.240E+01 0.000E+00 0.223E+02 0.000E+00 0.000E+00 0.212E+03 0.200E+02 0.638E-01     0.000     0.978
CORN   32 000130002   13    0 1995.14765E+00   932.600    73.300    50.700     0.000  1101.500   659.641   222.037   225.012    93.865    93.674     4.684    74.304     0.000     0.000     1.000  1004.684     9.149     9.149     0.000   155.033    14.186   178.369    58.024    11.012    17.093     4.931    10.707    15.046     6.939     7.098    13.860    28.854     0.000     0.000     0.000     0.000     0.000     0.000     9.100     0.000     3.535    14.687    -1.039     1.292     2.519    31.578    72.485     5.725    43.343    15.167    30.982     3.795     2.409     0.130     5.059    17.492     2.285     0.003     0.000     0.000    21.737    63.314     0.035     7.191     2.844     2.667 .00000E+00 .00000E+00 0.240E+01 0.000E+00 0.223E+02 0.000E+00 0.000E+00 0.000E+00 0.000E+00 0.506E+01     0.000   155.033
SOYB   33 000140001   14    0 1995.46000E-04   932.600    73.300    50.700     0.000  1101.500   677.361   228.422   243.895   203.784   203.388    10.169   114.951     0.000     0.000     1.000  1010.169     9.333     9.333     0.000     8.309    77.767    95.409    58.701    11.012    17.093     4.931    10.875    15.046     0.646     0.532   223.860     0.000     0.000     0.000     0.000     0.000     0.000     0.000     9.100    93.720    10.847    14.666    -1.038     3.138     2.515   -14.893    34.232     6.947   131.607    38.077     5.511     0.675     0.429     0.203     0.332    38.485    13.660     0.003     0.000     0.000    15.112     0.000     0.000    14.058     3.824     3.376 .00000E+00 .00000E+00 0.240E+01 0.000E+00 0.223E+02 0.000E+00 0.000E+00 0.000E+00 0.000E+00 0.332E+00     0.000     8.309
CORN   34 000150001   15    0 1995.78209E+00   932.600    73.300    50.700     0.000  1101.500   661.749   232.095   258.399     0.017     0.017     0.001     0.000     0.000     0.000     0.516  1000.000     9.336     9.336     0.000     2.272     0.000   222.522    58.633    11.012    17.093     4.931    10.727    15.046     0.242     0.724    13.860    28.854     0.000     0.000     0.000     0.000     0.000     0.000     9.100     0.000     4.614    14.911    -1.051     1.681     2.557    27.682    69.198     5.739    55.783    19.464     3.733     0.457     0.290     0.159     0.147     0.006     0.000     0.003     0.000     0.000    21.737    59.355     0.035     9.228     2.979     3.422 .00000E+00 .00000E+00 0.240E+01 0.000E+00 0.223E+02 0.000E+00 0.000E+00 0.211E+03 0.199E+02 0.147E+00     0.000     2.272
CORN   35 000150002   15    0 1995.13257E+01   932.600    73.300    50.700     0.000  1101.500   661.817   232.132   258.555     0.017     0.017     0.001     0.000     0.000     0.000     0.516  1000.000     9.347     9.347     0.000     0.978     0.000   222.306    58.639    11.012    17.093     4.931    10.727    15.046     0.110     0.395    13.860    28.854     0.000     0.000     0.000     0.000     0.000     0.000     9.100     0.000     4.630    14.912    -1.051     1.687     2.557    27.615    69.136     5.741    55.989    19.535     2.179     0.267     0.169     0.159     0.064     0.006     0.000     0.003     0.000     0.000    21.737    59.273     0.035     9.261     2.981     3.435 .00000E+00 .00000E+00 0.240E+01 0.000E+00 0.223E+02 0.000E+00 0.000E+00 0.212E+03 0.200E+02 0.638E-01     0.000     0.978
SOYB   36 000160001   16    0 1995.69609E+00   932.600    73.300    50.700     0.000  1101.500   674.806   229.009   245.043     0.017     0.017     0.001     0.000     0.000     0.000     0.516  1000.000     9.330     9.330     0.000     2.075     0.000   222.824    58.622    11.012    17.093     4.931    10.876    15.046     0.240     0.676   223.860     0.000     0.000     0.000     0.000     0.000     0.000     0.000     9.100    90.664    12.053    14.674    -1.035     3.138     2.516   -14.979    34.150     7.293   146.234    38.077     3.587     0.439     0.279     0.213     0.141     0.006     0.000     0.003     0.000     0.000    15.112     0.000     0.000    14.058     3.824     3.376 .00000E+00 .00000E+00 0.240E+01 0.000E+00 0.223E+02 0.000E+00 0.000E+00 0.211E+03 0.211E+02 0.141E+00     0.000     2.075
SOYB   37 000160002   16    0 1995.13060E+01   932.600    73.300    50.700     0.000  1101.500   674.819   229.062   245.203     0.017     0.017     0.001     0.000     0.000     0.000     0.516  1000.000     9.341     9.341     0.000     0.961     0.000   222.656    58.627    11.012    17.093     4.931    10.876    15.046     0.114     0.399   223.860     0.000     0.000     0.000     0.000     0.000     0.000     0.000     9.100    90.510    12.055    14.676    -1.035     3.138     2.517   -14.982    34.143     7.295   146.262    38.077     2.238     0.274     0.174     0.214     0.066     0.006     0.000     0.003     0.000     0.000    15.112     0.000     0.000    14.058     3.824     3.376 .00000E+00 .00000E+00 0.240E+01 0.000E+00 0.223E+02 0.000E+00 0.000E+00 0.212E+03 0.211E+02 0.655E-01     0.000     0.961
SOYB   38 000160003   16    0 1995.76453E+00   932.600    73.300    50.700     0.000  1101.500   690.660   192.891   202.768     0.016     0.016     0.001     0.000     0.000     0.000     0.515  1000.000     9.339     9.340     0.000     2.222     0.000   223.152    58.292    11.012    17.093     4.931    10.486    15.046     0.328     0.902   223.860     0.000     0.000     0.000     0.000     0.000     0.000     0.000     9.100    92.281    12.307    12.559    -0.873     3.167     2.154   -13.858    41.409     6.459   147.954    38.077     3.285     0.403     0.288     0.210     0.134     0.011     0.000     0.003     0.000     0.000    15.112     0.000     0.000    14.058     3.824     3.376 .00000E+00 .00000E+00 0.240E+01 0.000E+00 0.223E+02 0.000E+00 0.000E+00 0.212E+03 0.215E+02 0.134E+00     0.000     2.222
SOYB   39 000160004   16    0 1995.50083E+00   932.600    73.300    50.700     0.000  1101.500   690.682   192.975   203.032     0.016     0.016     0.001     0.000     0.000     0.000     0.516  1000.000     9.345     9.345     0.000     0.892     0.000   222.928    58.299    11.012    17.093     4.931    10.486    15.046     0.135     0.463   223.860     0.000     0.000     0.000     0.000     0.000     0.000     0.000     9.100    92.251    12.323    12.562    -0.873     3.167     2.154   -13.861    41.402     6.461   148.151    38.077     1.806     0.221     0.158     0.210     0.054     0.012     0.000     0.003     0.000     0.000    15.112     0.000     0.000    14.058     3.824     3.376 .00000E+00 .00000E+00 0.240E+01 0.000E+00 0.223E+02 0.000E+00 0.000E+00 0.213E+03 0.216E+02 0.543E-01     0.000     0.892
CORN   40 000170001   17    0 1995.20364E-01   932.600    73.300    50.700     0.000  1101.500   693.884   385.022   360.428     7.309     7.283     0.364     6.419     0.000     0.000     1.000  1000.364     9.454     9.454     0.000   234.826     0.000   244.280    58.730    11.012    17.093     4.931    10.661    15.046     7.366    13.410    13.860    28.854     0.000     0.000     0.000     0.000     0.000     0.000     9.100     0.000     5.308    17.749    -1.297     1.937     3.043    64.600   191.631     6.183    64.845    22.665    27.947     3.424     2.103     0.133     4.795     0.145     0.000     0.003     0.000     0.000    21.737    51.963     0.035    10.744     3.423     3.985 .00000E+00 .00000E+00 0.240E+01 0.000E+00 0.223E+02 0.000E+00 0.000E+00 0.000E+00 0.000E+00 0.480E+01     0.000   234.826
SOYB   41 000180001   18    0 1995.57642E+00   932.600    73.300    50.700     0.000  1101.500   674.804   229.001   245.021     0.017     0.017     0.001     0.000     0.000     0.000     0.516  1000.000     9.327     9.327     0.000     2.233     0.000   222.848    58.622    11.012    17.093     4.931    10.876    15.046     0.274     0.724   223.860     0.000     0.000     0.000     0.000     0.000     0.000     0.000     9.100    90.686    12.052    14.674    -1.035     3.138     2.516   -14.979    34.151     7.293   146.230    38.077     3.817     0.468     0.297     0.213     0.151     0.006     0.000     0.003     0.000     0.000    15.112     0.000     0.000    14.058     3.824     3.376 .00000E+00 .00000E+00 0.240E+01 0.000E+00 0.223E+02 0.000E+00 0.000E+00 0.211E+03 0.211E+02 0.151E+00     0.000     2.233
SOYB   42 000180002   18    0 1995.10346E+01   932.600    73.300    50.700     0.000  1101.500   674.819   229.062   245.203     0.017     0.017     0.001     0.000     0.000     0.000     0.516  1000.000     9.338     9.338     0.000     0.961     0.000   222.657    58.627    11.012    17.093     4.931    10.876    15.046     0.117     0.399   223.860     0.000     0.000     0.000     0.000     0.000     0.000     0.000     9.100    90.510    12.055    14.676    -1.035     3.138     2.517   -14.982    34.143     7.295   146.262    38.077     2.274     0.279     0.177     0.213     0.066     0.006     0.000     0.003     0.000     0.000    15.112     0.000     0.000    14.058     3.824     3.376 .00000E+00 .00000E+00 0.240E+01 0.000E+00 0.223E+02 0.000E+00 0.000E+00 0.212E+03 0.211E+02 0.655E-01     0.000     0.961
BERM   43 000190001   19    0 1995.50643E+00   932.600    73.300    50.700     0.000  1101.500   618.639   225.785   207.360    97.759    97.523     4.876    74.254     0.000     0.000     1.000  1004.876   218.496   218.496     0.000     0.443    17.893   236.832    68.584    11.012    17.093     4.931    10.929    15.046     0.957     1.748     0.000     0.000     0.000     0.000     0.000     0.000     0.000     0.000     9.100     0.000     0.000    14.238    -1.058     0.000     2.441     4.219    50.357     6.250    56.376    15.878    16.830     2.118     2.039     2.127     0.016    18.373     2.954     0.073     0.000     0.000    23.764    93.605     0.212     0.832     1.664     0.000 .00000E+00 .00000E+00 0.242E+01 0.000E+00 0.223E+02 0.000E+00 0.000E+00 0.000E+00 0.000E+00 0.162E-01     0.000     0.443
BERM   44 000190002   19    0 1995.54214E+00   932.600    73.300    50.700     0.000  1101.500   618.615   225.763   207.259    97.388    97.154     4.858    74.075     0.000     0.000     1.000  1004.858   218.399   218.399     0.000     1.032    17.721   237.152    68.571    11.012    17.093     4.931    10.929    15.046     2.058     3.204     0.000     0.000     0.000     0.000     0.000     0.000     0.000     0.000     9.100     0.000     0.000    14.223    -1.057     0.000     2.439     4.259    50.444     6.248    56.378    15.879    28.151     3.503     3.456     2.125     0.038    18.299     2.923     0.070     0.000     0.000    23.764    93.604     0.212     0.832     1.664     0.000 .00000E+00 .00000E+00 0.242E+01 0.000E+00 0.223E+02 0.000E+00 0.000E+00 0.000E+00 0.000E+00 0.377E-01     0.000     1.032
BERM   45 000190003   19    0 1995.60248E+00   932.600    73.300    50.700     0.000  1101.500   618.520   225.531   206.647    94.897    94.668     4.733    72.874     0.000     0.000     1.000  1004.734   218.239   218.239     0.000     4.388    16.561   239.187    68.538    11.012    17.093     4.931    10.929    15.046    10.478    12.034     0.000     0.000     0.000     0.000     0.000     0.000     0.000     0.000     9.100     0.000     0.000    14.152    -1.053     0.000     2.427     4.394    50.740     6.250    56.461    15.903    75.388     9.285     9.385     2.120     0.159    17.802     2.719     0.063     0.000     0.000    23.764    93.565     0.212     0.833     1.665     0.000 .00000E+00 .00000E+00 0.242E+01 0.000E+00 0.223E+02 0.000E+00 0.000E+00 0.000E+00 0.000E+00 0.159E+00     0.000     4.388
BERM   46 000190004   19    0 1995.41062E+00   932.600    73.300    50.700     0.000  1101.500   622.004   195.222   176.979    98.398    98.166     4.908    74.528     0.000     0.000     1.000  1004.909   218.195   218.195     0.000     1.073    18.230   237.498    68.325    11.012    17.093     4.931    10.653    15.046     2.416     3.739     0.000     0.000     0.000     0.000     0.000     0.000     0.000     0.000     9.100     0.000     0.000    12.251    -0.906     0.000     2.101     6.736    59.295     5.736    51.396    14.486    22.783     2.856     3.138     2.153     0.040    23.712     3.897     0.072     0.000     0.000    23.764    95.905     0.212     0.759     1.596     0.000 .00000E+00 .00000E+00 0.242E+01 0.000E+00 0.223E+02 0.000E+00 0.000E+00 0.000E+00 0.000E+00 0.405E-01     0.000     1.073
BERM   47 000190005   19    0 1995.46532E+00   932.600    73.300    50.700     0.000  1101.500   621.991   194.933   176.217    96.006    95.779     4.789    73.329     0.000     0.000     1.000  1004.789   218.038   218.038     0.000     4.344    17.161   239.543    68.290    11.012    17.093     4.931    10.652    15.046    11.135    12.726     0.000     0.000     0.000     0.000     0.000     0.000     0.000     0.000     9.100     0.000     0.000    12.189    -0.903     0.000     2.090     6.841    59.508     5.739    51.548    14.530    56.950     7.037     7.974     2.148     0.161    23.150     3.661     0.065     0.000     0.000    23.764    95.834     0.212     0.761     1.599     0.000 .00000E+00 .00000E+00 0.242E+01 0.000E+00 0.223E+02 0.000E+00 0.000E+00 0.000E+00 0.000E+00 0.161E+00     0.000     4.344
BERM   48 000190006   19    0 1995.36521E+00   932.600    73.300    50.700     0.000  1101.500   622.015   195.260   177.118    98.791    98.558     4.928    74.710     0.000     0.000     1.000  1004.928   218.294   218.294     0.000     0.461    18.420   237.174    68.339    11.012    17.093     4.931    10.653    15.046     1.108     2.039     0.000     0.000     0.000     0.000     0.000     0.000     0.000     0.000     9.100     0.000     0.000    12.264    -0.907     0.000     2.103     6.699    59.223     5.737    51.381    14.482    13.695     1.749     1.856     2.156     0.017    23.805     3.939     0.076     0.000     0.000    23.764    95.913     0.212     0.759     1.596     0.000 .00000E+00 .00000E+00 0.242E+01 0.000E+00 0.223E+02 0.000E+00 0.000E+00 0.000E+00 0.000E+00 0.174E-01     0.000     0.461
SOYB   49 000200001   20    0 1995.54064E+00   932.600    73.300    50.700     0.000  1101.500   674.804   229.001   245.021     0.017     0.017     0.001     0.000     0.000     0.000     0.516  1000.000     9.327     9.328     0.000     2.233     0.000   222.848    58.622    11.012    17.093     4.931    10.876    15.046     0.270     0.724   223.860     0.000     0.000     0.000     0.000     0.000     0.000     0.000     9.100    90.686    12.052    14.674    -1.035     3.138     2.516   -14.979    34.151     7.293   146.230    38.077     3.784     0.464     0.294     0.213     0.151     0.006     0.000     0.003     0.000     0.000    15.112     0.000     0.000    14.058     3.824     3.376 .00000E+00 .00000E+00 0.240E+01 0.000E+00 0.223E+02 0.000E+00 0.000E+00 0.211E+03 0.211E+02 0.151E+00     0.000     2.233
SOYB   50 000200002   20    0 1995.61953E+00   932.600    73.300    50.700     0.000  1101.500   674.819   229.062   245.203     0.017     0.017     0.001     0.000     0.000     0.000     0.516  1000.000     9.335     9.335     0.000     0.961     0.000   222.657    58.627    11.012    17.093     4.931    10.876    15.046     0.115     0.397   223.860     0.000     0.000     0.000     0.000     0.000     0.000     0.000     9.100    90.510    12.055    14.676    -1.035     3.138     2.517   -14.982    34.143     7.295   146.262    38.077     2.230     0.273     0.173     0.213     0.066     0.006     0.000     0.003     0.000     0.000    15.112     0.000     0.000    14.058     3.824     3.376 .00000E+00 .00000E+00 0.240E+01 0.000E+00 0.223E+02 0.000E+00 0.000E+00 0.212E+03 0.211E+02 0.655E-01     0.000     0.961
BERM   51 000210001   21    0 1995.59489E+00   932.600    73.300    50.700     0.000  1101.500   618.613   225.757   207.246    97.328    97.093     4.855    74.046     0.000     0.000     1.000  1004.854   218.401   218.401     0.000     1.106    17.693   237.199    68.571    11.012    17.093     4.931    10.929    15.046     2.202     3.424     0.000     0.000     0.000     0.000     0.000     0.000     0.000     0.000     9.100     0.000     0.000    14.220    -1.057     0.000     2.438     4.264    50.455     6.249    56.380    15.879    29.696     3.688     3.650     2.124     0.040    18.287     2.918     0.069     0.000     0.000    23.764    93.603     0.212     0.832     1.664     0.000 .00000E+00 .00000E+00 0.242E+01 0.000E+00 0.223E+02 0.000E+00 0.000E+00 0.000E+00 0.000E+00 0.404E-01     0.000     1.106
BERM   52 000210002   21    0 1995.92565E+00   932.600    73.300    50.700     0.000  1101.500   618.684   225.083   205.478    91.275    91.054     4.553    71.087     0.000     0.000     1.000  1004.553   218.192   218.192     0.000     9.068    14.914   242.174    68.508    11.012    17.093     4.931    10.928    15.046    15.085    15.922     0.000     0.000     0.000     0.000     0.000     0.000     0.000     0.000     9.100     0.000     0.000    14.117    -1.050     0.000     2.421     4.397    50.792     6.259    56.639    15.953    93.053    11.434    11.612     2.113     0.325    17.083     2.433     0.055     0.000     0.000    23.764    93.483     0.212     0.836     1.668     0.000 .00000E+00 .00000E+00 0.242E+01 0.000E+00 0.223E+02 0.000E+00 0.000E+00 0.000E+00 0.000E+00 0.325E+00     0.000     9.068
BERM   53 000210003   21    0 1995.33932E+00   932.600    73.300    50.700     0.000  1101.500   622.002   195.219   176.963    98.353    98.121     4.906    74.508     0.000     0.000     1.000  1004.906   218.178   218.178     0.000     1.150    18.207   237.535    68.323    11.012    17.093     4.931    10.653    15.046     2.618     4.004     0.000     0.000     0.000     0.000     0.000     0.000     0.000     0.000     9.100     0.000     0.000    12.250    -0.906     0.000     2.101     6.740    59.302     5.735    51.398    14.487    23.733     2.982     3.271     2.155     0.043    23.701     3.892     0.075     0.000     0.000    23.764    95.905     0.212     0.759     1.596     0.000 .00000E+00 .00000E+00 0.242E+01 0.000E+00 0.223E+02 0.000E+00 0.000E+00 0.000E+00 0.000E+00 0.434E-01     0.000     1.150
BERM   54 000210004   21    0 1995.45145E+00   932.600    73.300    50.700     0.000  1101.500   621.992   194.952   176.264    96.161    95.934     4.797    73.408     0.000     0.000     1.000  1004.797   218.042   218.043     0.000     4.140    17.229   239.411    68.292    11.012    17.093     4.931    10.652    15.046    10.278    11.880     0.000     0.000     0.000     0.000     0.000     0.000     0.000     0.000     9.100     0.000     0.000    12.193    -0.903     0.000     2.091     6.833    59.493     5.738    51.538    14.527    54.285     6.711     7.596     2.148     0.154    23.186     3.676     0.066     0.000     0.000    23.764    95.838     0.212     0.761     1.599     0.000 .00000E+00 .00000E+00 0.242E+01 0.000E+00 0.223E+02 0.000E+00 0.000E+00 0.000E+00 0.000E+00 0.154E+00     0.000     4.140
SOYB   55 000220001   22    0 1995.27186E+00   932.600    73.300    50.700     0.000  1101.500   673.930   218.491   212.478    91.053    90.867     4.543    72.653     0.000     0.000     1.000  1004.544     9.151     9.152     0.000   156.088    13.171   178.411    57.938    11.012    17.093     4.931    10.850    15.046     7.114    10.452   223.860     0.000     0.000     0.000     0.000     0.000     0.000     0.000     9.100    90.637    11.038    14.424    -1.026     3.138     2.473   -14.909    34.270     7.256   133.928    38.077    33.223     4.070     2.583     0.160     5.463    17.082     2.121     0.003     0.000     0.000    15.112     0.000     0.000    14.058     3.824     3.376 .00000E+00 .00000E+00 0.240E+01 0.000E+00 0.223E+02 0.000E+00 0.000E+00 0.000E+00 0.000E+00 0.546E+01     0.000   156.088
SOYB   56 000220002   22    0 1995.14490E+00   932.600    73.300    50.700     0.000  1101.500   666.564   222.198   242.085     0.000     0.000     0.000     0.000     0.000     0.000     0.500  1000.000    11.280    11.281     0.000     3.455     0.000   226.131    58.643    11.012    17.093     4.931    10.256    15.046     0.091     0.190   223.860     0.000     0.000     0.000     0.000     0.000     0.000     0.000     9.100    92.702    11.841    18.845    -1.470     3.079     3.231    34.203   165.636     6.281   146.422    38.077     1.312     0.161     0.107     0.247     0.047     0.000     0.000     0.003     0.000     0.000    15.112     0.000     0.000    14.058     3.824     3.376 .00000E+00 .00000E+00 0.240E+01 0.000E+00 0.223E+02 0.000E+00 0.000E+00 0.211E+03 0.196E+02 0.465E-01     0.000     3.455
SOYB   57 000220003   22    0 1995.12455E+00   932.600    73.300    50.700     0.000  1101.500   666.551   222.097   241.900     0.000     0.000     0.000     0.000     0.000     0.000     0.500  1000.000    11.269    11.269     0.000     7.768     0.000   226.330    58.637    11.012    17.093     4.931    10.256    15.046     0.213     0.580   223.860     0.000     0.000     0.000     0.000     0.000     0.000     0.000     9.100    92.628    11.840    18.842    -1.470     3.079     3.231    34.207   165.642     6.295   146.413    38.077     2.391     0.293     0.195     0.247     0.106     0.000     0.000     0.003     0.000     0.000    15.112     0.000     0.000    14.058     3.824     3.376 .00000E+00 .00000E+00 0.240E+01 0.000E+00 0.223E+02 0.000E+00 0.000E+00 0.207E+03 0.193E+02 0.106E+00     0.000     7.768
CORN   58 000230001   23    0 1995.16797E+01   932.600    73.300    50.700     0.000  1101.500   661.817   232.132   258.555     0.017     0.017     0.001     0.000     0.000     0.000     0.516  1000.000     9.352     9.352     0.000     0.978     0.000   222.305    58.640    11.012    17.093     4.931    10.727    15.046     0.105     0.395    13.860    28.854     0.000     0.000     0.000     0.000     0.000     0.000     9.100     0.000     4.630    14.912    -1.051     1.687     2.557    27.615    69.136     5.741    55.989    19.535     2.107     0.258     0.164     0.159     0.064     0.006     0.000     0.003     0.000     0.000    21.737    59.273     0.035     9.261     2.981     3.435 .00000E+00 .00000E+00 0.240E+01 0.000E+00 0.223E+02 0.000E+00 0.000E+00 0.212E+03 0.200E+02 0.638E-01     0.000     0.978
CORN   59 000230002   23    0 1995.82263E+00   932.600    73.300    50.700     0.000  1101.500   661.749   232.095   258.399     0.017     0.017     0.001     0.000     0.000     0.000     0.516  1000.000     9.337     9.337     0.000     2.272     0.000   222.522    58.634    11.012    17.093     4.931    10.727    15.046     0.230     0.729    13.860    28.854     0.000     0.000     0.000     0.000     0.000     0.000     9.100     0.000     4.614    14.911    -1.051     1.681     2.557    27.682    69.198     5.739    55.783    19.464     3.680     0.451     0.286     0.159     0.147     0.006     0.000     0.003     0.000     0.000    21.737    59.355     0.035     9.228     2.979     3.422 .00000E+00 .00000E+00 0.240E+01 0.000E+00 0.223E+02 0.000E+00 0.000E+00 0.211E+03 0.199E+02 0.147E+00     0.000     2.272
SOYB   60 000240001   24    0 1995.17603E+01   932.600    73.300    50.700     0.000  1101.500   674.804   229.001   245.021     0.017     0.017     0.001     0.000     0.000     0.000     0.516  1000.000     9.332     9.333     0.000     2.233     0.000   222.848    58.622    11.012    17.093     4.931    10.876    15.046     0.258     0.729   223.860     0.000     0.000     0.000     0.000     0.000     0.000     0.000     9.100    90.686    12.052    14.674    -1.035     3.138     2.516   -14.978    34.152     7.293   146.230    38.077     3.971     0.487     0.309     0.213     0.151     0.006     0.000     0.003     0.000     0.000    15.112     0.000     0.000    14.058     3.824     3.376 .00000E+00 .00000E+00 0.240E+01 0.000E+00 0.223E+02 0.000E+00 0.000E+00 0.211E+03 0.211E+02 0.151E+00     0.000     2.233
SOYB   61 000240002   24    0 1995.23170E+01   932.600    73.300    50.700     0.000  1101.500   674.819   229.062   245.203     0.017     0.017     0.001     0.000     0.000     0.000     0.516  1000.000     9.342     9.342     0.000     0.961     0.000   222.656    58.627    11.012    17.093     4.931    10.876    15.046     0.121     0.399   223.860     0.000     0.000     0.000     0.000     0.000     0.000     0.000     9.100    90.510    12.055    14.676    -1.035     3.138     2.517   -14.982    34.143     7.295   146.262    38.077     2.331     0.286     0.181     0.214     0.066     0.006     0.000     0.003     0.000     0.000    15.112     0.000     0.000    14.058     3.824     3.376 .00000E+00 .00000E+00 0.240E+01 0.000E+00 0.223E+02 0.000E+00 0.000E+00 0.212E+03 0.211E+02 0.655E-01     0.000     0.961
CORN   62 000250001   25    0 1995.27912E+01   932.600    73.300    50.700     0.000  1101.500   661.817   232.132   258.555     0.017     0.017     0.001     0.000     0.000     0.000     0.516  1000.000     9.347     9.347     0.000     0.978     0.000   222.306    58.639    11.012    17.093     4.931    10.727    15.046     0.121     0.395    13.860    28.854     0.000     0.000     0.000     0.000     0.000     0.000     9.100     0.000     4.630    14.912    -1.051     1.687     2.557    27.615    69.137     5.741    55.989    19.535     2.344     0.287     0.182     0.159     0.064     0.006     0.000     0.003     0.000     0.000    21.737    59.273     0.035     9.261     2.981     3.435 .00000E+00 .00000E+00 0.240E+01 0.000E+00 0.223E+02 0.000E+00 0.000E+00 0.212E+03 0.200E+02 0.638E-01     0.000     0.978
CORN   63 000250002   25    0 1995.17172E+01   932.600    73.300    50.700     0.000  1101.500   661.749   232.095   258.399     0.017     0.017     0.001     0.000     0.000     0.000     0.516  1000.000     9.336     9.336     0.000     2.272     0.000   222.522    58.633    11.012    17.093     4.931    10.727    15.046     0.266     0.724    13.860    28.854     0.000     0.000     0.000     0.000     0.000     0.000     9.100     0.000     4.614    14.911    -1.051     1.681     2.557    27.683    69.200     5.739    55.783    19.464     4.009     0.491     0.312     0.159     0.147     0.006     0.000     0.003     0.000     0.000    21.737    59.355     0.035     9.228     2.979     3.422 .00000E+00 .00000E+00 0.240E+01 0.000E+00 0.223E+02 0.000E+00 0.000E+00 0.211E+03 0.199E+02 0.147E+00     0.000     2.272
CORN   64 000250003   25    0 1995.13895E+01   932.600    73.300    50.700     0.000  1101.500   666.495   201.415   227.546     0.016     0.016     0.001     0.000     0.000     0.000     0.516  1000.000     9.352     9.352     0.000     0.912     0.000   222.592    58.311    11.012    17.093     4.931    10.358    15.046     0.143     0.466    13.860    28.854     0.000     0.000     0.000     0.000     0.000     0.000     9.100     0.000     4.672    12.647    -0.889     1.707     2.169    28.840    77.790     5.119    55.826    19.520     1.926     0.236     0.169     0.155     0.052     0.011     0.000     0.003     0.000     0.000    21.737    59.480     0.035     9.254     2.830     3.431 .00000E+00 .00000E+00 0.240E+01 0.000E+00 0.223E+02 0.000E+00 0.000E+00 0.212E+03 0.207E+02 0.525E-01     0.000     0.912
CORN   65 000250004   25    0 1995.18681E+01   932.600    73.300    50.700     0.000  1101.500   666.486   201.322   227.224     0.016     0.016     0.001     0.000     0.000     0.000     0.515  1000.000     9.346     9.346     0.000     2.270     0.000   222.847    58.303    11.012    17.093     4.931    10.357    15.046     0.332     0.909    13.860    28.854     0.000     0.000     0.000     0.000     0.000     0.000     9.100     0.000     4.654    12.645    -0.889     1.700     2.168    28.913    77.857     5.117    55.604    19.444     3.460     0.424     0.303     0.154     0.130     0.011     0.000     0.003     0.000     0.000    21.737    59.566     0.035     9.218     2.828     3.418 .00000E+00 .00000E+00 0.240E+01 0.000E+00 0.223E+02 0.000E+00 0.000E+00 0.211E+03 0.207E+02 0.130E+00     0.000     2.270
SOYB   66 000260001   26    0 1995.91212E+00   932.600    73.300    50.700     0.000  1101.500   674.819   229.062   245.203     0.017     0.017     0.001     0.000     0.000     0.000     0.516  1000.000     9.340     9.340     0.000     0.961     0.000   222.656    58.627    11.012    17.093     4.931    10.876    15.046     0.111     0.399   223.860     0.000     0.000     0.000     0.000     0.000     0.000     0.000     9.100    90.510    12.055    14.676    -1.035     3.138     2.517   -14.982    34.143     7.295   146.262    38.077     2.193     0.269     0.170     0.213     0.066     0.006     0.000     0.003     0.000     0.000    15.112     0.000     0.000    14.058     3.824     3.376 .00000E+00 .00000E+00 0.240E+01 0.000E+00 0.223E+02 0.000E+00 0.000E+00 0.212E+03 0.211E+02 0.655E-01     0.000     0.961
SOYB   67 000260002   26    0 1995.57286E+00   932.600    73.300    50.700     0.000  1101.500   674.804   229.001   245.021     0.017     0.017     0.001     0.000     0.000     0.000     0.516  1000.000     9.329     9.329     0.000     2.233     0.000   222.848    58.622    11.012    17.093     4.931    10.876    15.046     0.252     0.724   223.860     0.000     0.000     0.000     0.000     0.000     0.000     0.000     9.100    90.686    12.052    14.674    -1.035     3.138     2.516   -14.979    34.151     7.293   146.230    38.077     3.718     0.456     0.289     0.213     0.151     0.006     0.000     0.003     0.000     0.000    15.112     0.000     0.000    14.058     3.824     3.376 .00000E+00 .00000E+00 0.240E+01 0.000E+00 0.223E+02 0.000E+00 0.000E+00 0.211E+03 0.211E+02 0.151E+00     0.000     2.233
SOYB   68 000260003   26    0 1995.36957E+00   932.600    73.300    50.700     0.000  1101.500   690.682   192.975   203.032     0.016     0.016     0.001     0.000     0.000     0.000     0.516  1000.000     9.345     9.345     0.000     0.892     0.000   222.928    58.299    11.012    17.093     4.931    10.486    15.046     0.131     0.463   223.860     0.000     0.000     0.000     0.000     0.000     0.000     0.000     9.100    92.251    12.323    12.562    -0.873     3.167     2.154   -13.862    41.401     6.461   148.151    38.077     1.762     0.216     0.154     0.210     0.054     0.012     0.000     0.003     0.000     0.000    15.112     0.000     0.000    14.058     3.824     3.376 .00000E+00 .00000E+00 0.240E+01 0.000E+00 0.223E+02 0.000E+00 0.000E+00 0.213E+03 0.216E+02 0.543E-01     0.000     0.892
SOYB   69 000260004   26    0 1995.54778E+00   932.600    73.300    50.700     0.000  1101.500   690.660   192.891   202.768     0.016     0.016     0.001     0.000     0.000     0.000     0.515  1000.000     9.339     9.339     0.000     2.222     0.000   223.152    58.292    11.012    17.093     4.931    10.486    15.046     0.322     0.902   223.860     0.000     0.000     0.000     0.000     0.000     0.000     0.000     9.100    92.281    12.307    12.559    -0.873     3.167     2.154   -13.858    41.408     6.459   147.954    38.077     3.209     0.393     0.281     0.210     0.134     0.011     0.000     0.003     0.000     0.000    15.112     0.000     0.000    14.058     3.824     3.376 .00000E+00 .00000E+00 0.240E+01 0.000E+00 0.223E+02 0.000E+00 0.000E+00 0.212E+03 0.215E+02 0.134E+00     0.000     2.222
FRSD   70 000270001   27    0 1995.13380E-02   932.600    73.300    50.700     0.000  1101.500   804.030   156.169    65.921    40.325    40.238     2.012    35.817     0.000     0.000     1.000  1002.011    11.596    11.596     0.000   220.829     1.910   234.335    58.599    11.012    17.093     4.931     9.866    15.046     6.024    10.947     0.000     0.000     0.000     0.000     0.000     0.000     0.000     0.000     9.100     0.000     0.347    11.318    -0.906     0.054     1.941    15.396    59.654     6.677    24.013     3.788    27.661     3.388     2.152     0.152     6.434     7.316     0.250     0.003     0.000    35.150    21.081     0.000     4.090    15.609     4.987     0.000 .00000E+00 .00000E+00 0.240E+01 0.000E+00 0.223E+02 0.000E+00 0.000E+00 0.000E+00 0.000E+00 0.643E+01     0.000   220.829
SOYB   71 000280001   28    0 1995.26468E-01   932.600    73.300    50.700     0.000  1101.500   680.577   394.745   374.724     5.284     5.265     0.263     4.502     0.000     0.000     1.000  1000.263     9.454     9.454     0.000   235.862     0.000   245.316    58.683    11.012    17.093     4.931    10.860    15.046     8.427    15.824   223.860     0.000     0.000     0.000     0.000     0.000     0.000     0.000     9.100    81.905    12.053    17.701    -1.296     3.141     3.035    24.760   157.933     8.275   146.124    38.077    30.995     3.797     2.332     0.152     5.372     0.102     0.000     0.003     0.000     0.000    15.112     0.000     0.000    14.058     3.824     3.376 .00000E+00 .00000E+00 0.240E+01 0.000E+00 0.223E+02 0.000E+00 0.000E+00 0.000E+00 0.000E+00 0.537E+01     0.000   235.862
CORN   72 000290001   29    0 1995.49542E+01   932.600    73.300    50.700     0.000  1101.500   661.817   232.132   258.555     0.017     0.017     0.001     0.000     0.000     0.000     0.516  1000.000     9.350     9.350     0.000     0.978     0.000   222.305    58.639    11.012    17.093     4.931    10.727    15.046     0.123     0.395    13.860    28.854     0.000     0.000     0.000     0.000     0.000     0.000     9.100     0.000     4.630    14.912    -1.051     1.687     2.557    27.615    69.137     5.741    55.989    19.535     2.362     0.289     0.184     0.159     0.064     0.006     0.000     0.003     0.000     0.000    21.737    59.273     0.035     9.261     2.981     3.435 .00000E+00 .00000E+00 0.240E+01 0.000E+00 0.223E+02 0.000E+00 0.000E+00 0.212E+03 0.200E+02 0.638E-01     0.000     0.978
CORN   73 000290002   29    0 1995.30579E+01   932.600    73.300    50.700     0.000  1101.500   661.749   232.095   258.399     0.017     0.017     0.001     0.000     0.000     0.000     0.516  1000.000     9.339     9.339     0.000     2.272     0.000   222.522    58.634    11.012    17.093     4.931    10.727    15.046     0.257     0.729    13.860    28.854     0.000     0.000     0.000     0.000     0.000     0.000     9.100     0.000     4.614    14.911    -1.051     1.681     2.557    27.683    69.200     5.739    55.783    19.464     4.084     0.500     0.318     0.159     0.147     0.006     0.000     0.003     0.000     0.000    21.737    59.355     0.035     9.228     2.979     3.422 .00000E+00 .00000E+00 0.240E+01 0.000E+00 0.223E+02 0.000E+00 0.000E+00 0.211E+03 0.199E+02 0.147E+00     0.000     2.272
SOYB   74 000300001   30    0 1995.59255E+01   932.600    73.300    50.700     0.000  1101.500   686.000   422.859   442.015     0.000     0.000     0.000     0.000     0.000     0.000     0.500  1000.000     9.994     9.994     0.000     0.631     0.000   177.881    60.695    11.012    17.093     4.931    10.869    15.046     0.121     0.820   223.860     0.000     0.000     0.000     0.000     0.000     0.000     0.000     9.100    85.573    11.452    18.308    -1.327     3.141     3.139    24.776   157.908     8.575   138.839    38.077     2.144     0.263     0.161     0.246     0.014     0.000     0.000     0.003     0.000     0.000    15.112     0.000     0.000    14.058     3.824     3.376 .00000E+00 .00000E+00 0.240E+01 0.000E+00 0.223E+02 0.000E+00 0.000E+00 0.167E+03 0.161E+02 0.142E-01     0.000     0.631
CORN   75 000310001   31    0 1995.19508E+01   932.600    73.300    50.700     0.000  1101.500   658.961   246.439   276.753     0.000     0.000     0.000     0.000     0.000     0.000     0.500  1000.000     9.783     9.784     0.000     3.265     0.000   205.236    59.669    11.012    17.093     4.931    10.439    15.046     0.281     0.689    13.860    28.854     0.000     0.000     0.000     0.000     0.000     0.000     9.100     0.000     2.445     7.007    -0.501     0.906     1.202    65.841   199.877     1.028    30.977    10.957     1.847     0.226     0.240     0.133     0.170     0.000     0.000     0.003     0.000     0.000    21.737    78.578     0.030     5.195     2.483     1.925 .00000E+00 .00000E+00 0.240E+01 0.000E+00 0.223E+02 0.000E+00 0.000E+00 0.192E+03 0.387E+02 0.170E+00     0.000     3.265
CORN   76 000310002   31    0 1995.23861E+01   932.600    73.300    50.700     0.000  1101.500   644.463   245.475   276.718   202.111   200.461    10.023   120.063     0.000     0.000     1.000  1010.023     9.591     9.591     0.000     7.473    69.875    86.940    59.179    11.012    17.093     4.931    10.449    15.046     0.782     1.518    13.860    28.854     0.000     0.000     0.000     0.000     0.000     0.000     9.100     0.000     2.282     6.993    -0.499     0.846     1.199    66.505   200.457     1.032    28.917    10.224     3.620     0.443     0.470     0.125     0.372    40.151    13.438     0.003     0.000     0.000    21.737    78.651     0.032     4.848     2.398     1.796 .00000E+00 .00000E+00 0.240E+01 0.000E+00 0.223E+02 0.000E+00 0.000E+00 0.000E+00 0.000E+00 0.372E+00     0.000     7.473
SOYB   77 000320001   32    0 1995.27425E+01   932.600    73.300    50.700     0.000  1101.500   689.886   233.473   244.635     0.000     0.000     0.000     0.000     0.000     0.000     0.500  1000.000     9.761     9.761     0.000     3.263     0.000   206.449    59.530    11.012    17.093     4.931    10.518    15.046     0.238     0.389   223.860     0.000     0.000     0.000     0.000     0.000     0.000     0.000     9.100    96.809    10.175     6.683    -0.471     3.092     1.146    15.890   156.976     1.257   125.307    38.077     1.782     0.218     0.231     0.187     0.179     0.000     0.000     0.003     0.000     0.000    15.112     0.000     0.000    14.058     3.824     3.376 .00000E+00 .00000E+00 0.240E+01 0.000E+00 0.223E+02 0.000E+00 0.000E+00 0.193E+03 0.419E+02 0.179E+00     0.000     3.263
SOYB   78 000320002   32    0 1995.42213E+01   932.600    73.300    50.700     0.000  1101.500   681.895   230.866   243.913   197.701   197.271     9.864   116.997     0.000     0.000     1.000  1009.864     9.623     9.623     0.000     7.369    69.910    86.903    59.136    11.012    17.093     4.931    10.510    15.046     0.563     0.868   223.860     0.000     0.000     0.000     0.000     0.000     0.000     0.000     9.100    96.370    10.081     6.655    -0.469     3.092     1.141    15.891   156.981     1.270   124.153    38.077     3.366     0.413     0.437     0.181     0.390    41.851    13.874     0.003     0.000     0.000    15.112     0.000     0.000    14.058     3.824     3.376 .00000E+00 .00000E+00 0.240E+01 0.000E+00 0.223E+02 0.000E+00 0.000E+00 0.000E+00 0.000E+00 0.390E+00     0.000     7.369
CORN   79 000330001   33    0 1995.35629E+00   932.600    73.300    50.700     0.000  1101.500   677.792   306.297   316.343     0.000     0.000     0.000     0.000     0.000     0.000     0.500  1000.000     9.758     9.758     0.000     0.479     0.000   218.841    59.471    11.012    17.093     4.931    10.678    15.046     0.238     0.494    13.860    28.854     0.000     0.000     0.000     0.000     0.000     0.000     9.100     0.000     3.892    13.391    -0.998     1.427     2.296    63.460   200.126     3.904    48.561    17.054     2.099     0.257     0.211     0.159     0.015     0.000     0.000     0.003     0.000     0.000    21.737    59.471     0.035     8.085     2.974     2.998 .00000E+00 .00000E+00 0.240E+01 0.000E+00 0.223E+02 0.000E+00 0.000E+00 0.209E+03 0.184E+02 0.150E-01     0.000     0.479
CORN   80 000330002   33    0 1995.55752E+00   932.600    73.300    50.700     0.000  1101.500   686.645   315.162   329.808   183.161   182.670     9.133   110.624     0.000     0.000     1.000  1009.133     9.923     9.924     0.000     3.188    62.412    75.523    60.398    11.012    17.093     4.931    10.680    15.046     0.583     1.852    13.860    28.854     0.000     0.000     0.000     0.000     0.000     0.000     9.100     0.000     3.926    13.469    -1.004     1.439     2.310    63.378   200.089     3.718    48.989    17.203     3.793     0.465     0.382     0.172     0.098    17.890     5.885     0.003     0.000     0.000    21.737    59.632     0.035     8.156     2.996     3.025 .00000E+00 .00000E+00 0.240E+01 0.000E+00 0.223E+02 0.000E+00 0.000E+00 0.000E+00 0.000E+00 0.978E-01     0.000     3.188
SOYB   81 000340001   34    0 1995.14661E+01   932.600    73.300    50.700     0.000  1101.500   678.259   310.192   318.789     0.000     0.000     0.000     0.000     0.000     0.000     0.500  1000.000     9.773     9.773     0.000     0.437     0.000   215.953    59.429    11.012    17.093     4.931    10.858    15.046     0.213     0.590   223.860     0.000     0.000     0.000     0.000     0.000     0.000     0.000     9.100    86.350    11.099    13.408    -0.992     3.122     2.299    18.860   162.315     5.113   135.359    38.077     2.126     0.261     0.214     0.210     0.015     0.000     0.000     0.003     0.000     0.000    15.112     0.000     0.000    14.058     3.824     3.376 .00000E+00 .00000E+00 0.240E+01 0.000E+00 0.223E+02 0.000E+00 0.000E+00 0.206E+03 0.189E+02 0.152E-01     0.000     0.437
SOYB   82 000340002   34    0 1995.11722E+01   932.600    73.300    50.700     0.000  1101.500   684.186   319.165   331.492   184.142   183.644     9.182   111.164     0.000     0.000     1.000  1009.182     9.912     9.912     0.000     3.048    62.798    75.757    60.283    11.012    17.093     4.931    10.862    15.046     0.558     1.769   223.860     0.000     0.000     0.000     0.000     0.000     0.000     0.000     9.100    86.345    10.998    13.509    -0.999     3.122     2.317    18.895   162.359     4.822   134.127    38.077     3.819     0.468     0.385     0.230     0.106    20.139     6.366     0.003     0.000     0.000    15.112     0.000     0.000    14.058     3.824     3.376 .00000E+00 .00000E+00 0.240E+01 0.000E+00 0.223E+02 0.000E+00 0.000E+00 0.000E+00 0.000E+00 0.106E+00     0.000     3.048
SOYB   83 000340003   34    0 1995.12255E+01   932.600    73.300    50.700     0.000  1101.500   638.645   140.087   166.619     0.051     0.051     0.003     0.000     0.000     0.000     0.548  1000.000    10.963    10.963     0.000     3.005     0.000   255.243    57.309    11.012    17.093     4.931    10.364    15.046     0.290     0.665   223.860     0.000     0.000     0.000     0.000     0.000     0.000     0.000     9.100    97.291    12.745    10.867    -0.766     3.013     1.864   -15.705    33.632     4.742   155.983    36.872     3.923     0.481     0.335     0.199     0.685     0.070     0.000     0.003     0.000     3.007    15.112     0.000     0.000    13.613     3.812     3.260 .00000E+00 .00000E+00 0.240E+01 0.000E+00 0.223E+02 0.000E+00 0.000E+00 0.241E+03 0.143E+02 0.685E+00     0.000     3.005
SOYB   84 000340004   34    0 1995.93639E+00   932.600    73.300    50.700     0.000  1101.500   638.670   140.186   166.803     0.052     0.052     0.003     0.000     0.000     0.000     0.549  1000.000    10.970    10.970     0.000     1.307     0.000   255.114    57.315    11.012    17.093     4.931    10.364    15.046     0.128     0.362   223.860     0.000     0.000     0.000     0.000     0.000     0.000     0.000     9.100    96.725    12.799    10.862    -0.765     3.013     1.863   -15.713    33.619     4.763   156.643    36.874     2.288     0.280     0.195     0.200     0.304     0.073     0.000     0.003     0.000     3.004    15.112     0.000     0.000    13.614     3.812     3.260 .00000E+00 .00000E+00 0.240E+01 0.000E+00 0.223E+02 0.000E+00 0.000E+00 0.243E+03 0.143E+02 0.304E+00     0.000     1.307
CORN   85 000350001   35    0 1995.50902E+00   932.600    73.300    50.700     0.000  1101.500   686.645   315.161   329.808   183.158   182.666     9.133   110.623     0.000     0.000     1.000  1009.133     9.927     9.927     0.000     3.188    62.410    75.525    60.399    11.012    17.093     4.931    10.680    15.046     0.500     2.193    13.860    28.854     0.000     0.000     0.000     0.000     0.000     0.000     9.100     0.000     3.926    13.469    -1.004     1.439     2.310    63.377   200.088     3.718    48.989    17.203     3.600     0.441     0.363     0.172     0.098    17.890     5.884     0.003     0.000     0.000    21.737    59.632     0.035     8.156     2.996     3.025 .00000E+00 .00000E+00 0.240E+01 0.000E+00 0.223E+02 0.000E+00 0.000E+00 0.000E+00 0.000E+00 0.978E-01     0.000     3.188
CORN   86 000350002   35    0 1995.36132E+00   932.600    73.300    50.700     0.000  1101.500   677.794   306.297   316.345     0.000     0.000     0.000     0.000     0.000     0.000     0.500  1000.000     9.761     9.761     0.000     0.449     0.000   218.844    59.471    11.012    17.093     4.931    10.678    15.046     0.196     0.463    13.860    28.854     0.000     0.000     0.000     0.000     0.000     0.000     9.100     0.000     3.892    13.391    -0.999     1.427     2.296    63.459   200.124     3.904    48.561    17.054     1.923     0.236     0.194     0.159     0.014     0.000     0.000     0.003     0.000     0.000    21.737    59.470     0.035     8.085     2.974     2.998 .00000E+00 .00000E+00 0.240E+01 0.000E+00 0.223E+02 0.000E+00 0.000E+00 0.209E+03 0.184E+02 0.140E-01     0.000     0.449
SOYB   87 000360001   36    0 1995.11505E+01   932.600    73.300    50.700     0.000  1101.500   674.819   229.062   245.203     0.017     0.017     0.001     0.000     0.000     0.000     0.516  1000.000     9.336     9.336     0.000     0.961     0.000   222.657    58.627    11.012    17.093     4.931    10.876    15.046     0.121     0.399   223.860     0.000     0.000     0.000     0.000     0.000     0.000     0.000     9.100    90.510    12.055    14.676    -1.035     3.138     2.517   -14.982    34.143     7.295   146.262    38.077     2.340     0.287     0.182     0.213     0.066     0.006     0.000     0.003     0.000     0.000    15.112     0.000     0.000    14.058     3.824     3.376 .00000E+00 .00000E+00 0.240E+01 0.000E+00 0.223E+02 0.000E+00 0.000E+00 0.212E+03 0.211E+02 0.655E-01     0.000     0.961
SOYB   88 000360002   36    0 1995.11165E+01   932.600    73.300    50.700     0.000  1101.500   674.804   229.001   245.021     0.017     0.017     0.001     0.000     0.000     0.000     0.516  1000.000     9.329     9.329     0.000     2.233     0.000   222.848    58.622    11.012    17.093     4.931    10.876    15.046     0.280     0.724   223.860     0.000     0.000     0.000     0.000     0.000     0.000     0.000     9.100    90.686    12.052    14.674    -1.035     3.138     2.516   -14.978    34.152     7.293   146.230    38.077     3.978     0.487     0.309     0.213     0.151     0.006     0.000     0.003     0.000     0.000    15.112     0.000     0.000    14.058     3.824     3.376 .00000E+00 .00000E+00 0.240E+01 0.000E+00 0.223E+02 0.000E+00 0.000E+00 0.211E+03 0.211E+02 0.151E+00     0.000     2.233
SOYB   89 000360003   36    0 1995.86610E+00   932.600    73.300    50.700     0.000  1101.500   690.660   192.891   202.768     0.016     0.016     0.001     0.000     0.000     0.000     0.515  1000.000     9.337     9.337     0.000     2.222     0.000   223.152    58.292    11.012    17.093     4.931    10.486    15.046     0.362     0.902   223.860     0.000     0.000     0.000     0.000     0.000     0.000     0.000     9.100    92.281    12.307    12.559    -0.873     3.167     2.154   -13.857    41.410     6.459   147.954    38.077     3.413     0.418     0.299     0.210     0.134     0.011     0.000     0.003     0.000     0.000    15.112     0.000     0.000    14.058     3.824     3.376 .00000E+00 .00000E+00 0.240E+01 0.000E+00 0.223E+02 0.000E+00 0.000E+00 0.212E+03 0.215E+02 0.134E+00     0.000     2.222
SOYB   90 000360004   36    0 1995.54145E+00   932.600    73.300    50.700     0.000  1101.500   690.679   192.966   203.003     0.016     0.016     0.001     0.000     0.000     0.000     0.516  1000.000     9.342     9.342     0.000     1.041     0.000   222.953    58.298    11.012    17.093     4.931    10.486    15.046     0.165     0.500   223.860     0.000     0.000     0.000     0.000     0.000     0.000     0.000     9.100    92.248    12.321    12.561    -0.873     3.167     2.154   -13.861    41.403     6.461   148.123    38.077     2.005     0.246     0.176     0.210     0.063     0.011     0.000     0.003     0.000     0.000    15.112     0.000     0.000    14.058     3.824     3.376 .00000E+00 .00000E+00 0.240E+01 0.000E+00 0.223E+02 0.000E+00 0.000E+00 0.213E+03 0.215E+02 0.632E-01     0.000     1.041
CORN   91 000370001   37    0 1995.12578E+01   932.600    73.300    50.700     0.000  1101.500   661.749   232.095   258.399     0.017     0.017     0.001     0.000     0.000     0.000     0.516  1000.000     9.337     9.337     0.000     2.272     0.000   222.522    58.634    11.012    17.093     4.931    10.727    15.046     0.243     0.729    13.860    28.854     0.000     0.000     0.000     0.000     0.000     0.000     9.100     0.000     4.614    14.911    -1.051     1.681     2.557    27.683    69.198     5.739    55.783    19.464     3.829     0.469     0.298     0.159     0.147     0.006     0.000     0.003     0.000     0.000    21.737    59.355     0.035     9.228     2.979     3.422 .00000E+00 .00000E+00 0.240E+01 0.000E+00 0.223E+02 0.000E+00 0.000E+00 0.211E+03 0.199E+02 0.147E+00     0.000     2.272
CORN   92 000370002   37    0 1995.13624E+01   932.600    73.300    50.700     0.000  1101.500   661.816   232.133   258.556     0.017     0.017     0.001     0.000     0.000     0.000     0.516  1000.000     9.345     9.345     0.000     0.978     0.000   222.306    58.639    11.012    17.093     4.931    10.727    15.046     0.115     0.399    13.860    28.854     0.000     0.000     0.000     0.000     0.000     0.000     9.100     0.000     4.630    14.912    -1.051     1.687     2.557    27.615    69.137     5.741    55.989    19.535     2.256     0.276     0.175     0.159     0.064     0.006     0.000     0.003     0.000     0.000    21.737    59.274     0.035     9.261     2.981     3.435 .00000E+00 .00000E+00 0.240E+01 0.000E+00 0.223E+02 0.000E+00 0.000E+00 0.212E+03 0.200E+02 0.638E-01     0.000     0.978
SOYB   93 000380001   38    0 1995.17282E+01   932.600    73.300    50.700     0.000  1101.500   674.819   229.062   245.203     0.017     0.017     0.001     0.000     0.000     0.000     0.516  1000.000     9.346     9.346     0.000     0.961     0.000   222.656    58.628    11.012    17.093     4.931    10.876    15.046     0.108     0.395   223.860     0.000     0.000     0.000     0.000     0.000     0.000     0.000     9.100    90.510    12.055    14.676    -1.035     3.138     2.517   -14.982    34.142     7.295   146.262    38.077     2.139     0.262     0.166     0.213     0.066     0.006     0.000     0.003     0.000     0.000    15.112     0.000     0.000    14.058     3.824     3.376 .00000E+00 .00000E+00 0.240E+01 0.000E+00 0.223E+02 0.000E+00 0.000E+00 0.212E+03 0.211E+02 0.655E-01     0.000     0.961
SOYB   94 000380002   38    0 1995.87640E+00   932.600    73.300    50.700     0.000  1101.500   674.804   229.001   245.021     0.017     0.017     0.001     0.000     0.000     0.000     0.516  1000.000     9.333     9.333     0.000     2.233     0.000   222.848    58.622    11.012    17.093     4.931    10.876    15.046     0.235     0.729   223.860     0.000     0.000     0.000     0.000     0.000     0.000     0.000     9.100    90.686    12.052    14.674    -1.035     3.138     2.516   -14.979    34.151     7.293   146.230    38.077     3.718     0.456     0.289     0.213     0.151     0.006     0.000     0.003     0.000     0.000    15.112     0.000     0.000    14.058     3.824     3.376 .00000E+00 .00000E+00 0.240E+01 0.000E+00 0.223E+02 0.000E+00 0.000E+00 0.211E+03 0.211E+02 0.151E+00     0.000     2.233
CORN   95 000390001   39    0 1995.14317E+01   932.600    73.300    50.700     0.000  1101.500   692.875   416.338   435.468     0.000     0.000     0.000     0.000     0.000     0.000     0.500  1000.000    10.000    10.000     0.000     0.779     0.000   177.552    60.707    11.012    17.093     4.931    10.699    15.046     0.112     0.887    13.860    28.854     0.000     0.000     0.000     0.000     0.000     0.000     9.100     0.000     4.363    18.255    -1.328     1.590     3.130    68.326   194.805     6.899    53.152    18.560     2.020     0.248     0.152     0.178     0.016     0.000     0.000     0.003     0.000     0.000    21.737    58.666     0.035     8.799     3.159     3.264 .00000E+00 .00000E+00 0.240E+01 0.000E+00 0.223E+02 0.000E+00 0.000E+00 0.167E+03 0.151E+02 0.157E-01     0.000     0.779
[...]
SOYB  209 001050004  105    0 18.0.37578E+00  1021.167   118.444   115.171     0.000  1061.833   690.590   225.366   272.101     0.042     0.042     0.002     0.012     0.000     0.000     1.000  1000.010    10.441    10.441     0.000     4.021     0.000   327.666    56.555    11.385    16.868     5.903    11.115    14.998     0.037     0.421   118.860    14.427     0.000     0.000     0.000     0.000     0.000     0.000    10.179    50.949    37.960    11.317    -2.550     9.605     1.946   -24.212   -18.238    17.878   175.270    50.041     0.566     0.074     0.038     0.149     0.349     0.013     0.000     0.002     0.000     0.000    18.029     9.133     0.243    21.477     4.004     6.876 .00000E+00 .00000E+00 0.275E+00 0.000E+00 0.000E+00 0.000E+00 0.000E+00 0.313E+03 0.177E+02 0.349E+00     0.000     4.021
CORN  210 001060001  106    0 18.0.90080E+00  1021.167   118.444   115.291     0.000  1061.833   682.466   245.401   287.176     0.047     0.047     0.002     0.017     0.000     0.000     1.000  1000.012    12.590    12.590     0.000     1.658     0.000   335.605    56.842    11.381    16.868     5.894    11.240    14.999     0.030     0.420   118.860    14.427     0.000     0.000     0.000     0.000     0.000     0.000    10.180    50.906    33.522    14.342    -5.495     9.562     2.464   -24.740   -18.533    23.447   173.664    50.796     0.637     0.083     0.036     0.184     0.125     0.015     0.000     0.003     0.000     0.432    18.318     8.303     0.137    21.811     4.065     6.990 .00000E+00 .00000E+00 0.275E+00 0.000E+00 0.000E+00 0.000E+00 0.000E+00 0.321E+03 0.241E+02 0.125E+00     0.000     1.658
SOYB  211 001070001  107    0 18.0.68112E+00  1021.167   118.444   115.171     0.000  1061.833   684.265   242.178   286.848     0.045     0.045     0.002     0.015     0.000     0.000     1.000  1000.011    12.048    12.048     0.000     4.469     0.000   333.819    56.711    11.385    16.868     5.903    11.353    14.998     0.077     0.553   118.860    14.427     0.000     0.000     0.000     0.000     0.000     0.000    10.179    52.496    35.376    14.558    -5.151     9.333     2.500   -23.243   -17.194    22.517   170.146    49.198     1.503     0.195     0.085     0.166     0.280     0.012     0.000     0.003     0.000     0.000    18.029    10.331     0.243    21.076     3.993     6.727 .00000E+00 .00000E+00 0.275E+00 0.000E+00 0.000E+00 0.000E+00 0.000E+00 0.317E+03 0.211E+02 0.280E+00     0.000     4.469
SOYB  212 001070002  107    0 18.0.13887E+01  1021.167   118.444   115.171     0.000  1061.833   684.212   242.270   286.848     0.046     0.046     0.002     0.016     0.000     0.000     1.000  1000.011    12.076    12.076     0.000     1.943     0.000   333.879    56.704    11.385    16.868     5.903    11.353    14.998     0.036     0.363   118.860    14.427     0.000     0.000     0.000     0.000     0.000     0.000    10.179    52.449    35.547    14.571    -5.131     9.347     2.502   -23.278   -17.226    22.548   170.630    49.246     0.760     0.099     0.043     0.166     0.124     0.012     0.000     0.003     0.000     0.000    18.029    10.263     0.243    21.099     3.993     6.735 .00000E+00 .00000E+00 0.275E+00 0.000E+00 0.000E+00 0.000E+00 0.000E+00 0.320E+03 0.211E+02 0.124E+00     0.000     1.943
CORN  213 001080001  108    0 18.0.33027E-01  1021.167   118.444   115.290     0.000  1061.833   672.276   228.774   282.677   135.737   135.736     6.787    74.543     0.000     0.000     1.000  1122.159    14.134    14.134     0.000   196.125    54.378   264.636    56.453    11.381    16.868     5.894    11.230    14.999     2.193    11.937   118.860    14.427     0.000     0.000     0.000     0.000     0.000     0.000    10.180    51.187    28.627    32.002   -18.506     8.742     5.485   -20.607   -16.536    42.022   159.426    48.351    14.503     1.902     0.797     0.187     7.199    11.749     3.437     0.003     0.000     0.572    18.318    11.826     0.137    20.651     4.060     6.559 .00000E+00 .00000E+00 0.275E+00 0.000E+00 0.000E+00 0.000E+00 0.000E+00 0.000E+00 0.000E+00 0.720E+01     0.000   196.125
SOYB  214 001090001  109    0 18.0.22240E+01  1021.167   118.444   115.291     0.000  1061.833   684.190   242.360   286.848     0.046     0.046     0.002     0.016     0.000     0.000     1.000  1000.011    12.676    12.676     0.000     1.616     0.000   333.902    56.824    11.381    16.868     5.894    11.261    14.999     0.030     0.409   118.860    14.427     0.000     0.000     0.000     0.000     0.000     0.000    10.180    52.416    35.723    14.464    -5.030     9.357     2.484   -23.335   -17.276    22.207   171.055    49.293     0.638     0.083     0.037     0.184     0.101     0.012     0.000     0.003     0.000     0.000    18.029    10.192     0.243    21.122     3.994     6.744 .00000E+00 .00000E+00 0.275E+00 0.000E+00 0.000E+00 0.000E+00 0.000E+00 0.320E+03 0.211E+02 0.101E+00     0.000     1.616
CORN  215 001100001  110    0 18.0.12767E+00  1021.167   118.444   115.171     0.000  1061.833   682.607   245.167   287.175     0.046     0.045     0.002     0.015     0.000     0.000     1.000  1000.011    12.456    12.457     0.000     4.514     0.000   335.457    56.727    11.385    16.868     5.903    11.332    14.998     0.077     0.504   118.860    14.427     0.000     0.000     0.000     0.000     0.000     0.000    10.179    51.192    33.210    14.440    -5.612     9.528     2.481   -24.602   -18.409    23.806   172.728    50.645     1.369     0.179     0.076     0.184     0.338     0.014     0.000     0.003     0.000     0.433    18.318     8.532     0.137    21.740     4.064     6.963 .00000E+00 .00000E+00 0.275E+00 0.000E+00 0.000E+00 0.000E+00 0.000E+00 0.318E+03 0.242E+02 0.338E+00     0.000     4.514
CORN  216 001100002  110    0 18.0.92822E-01  1021.167   118.444   115.171     0.000  1061.833   682.575   245.258   287.175     0.046     0.046     0.002     0.016     0.000     0.000     1.000  1000.011    12.466    12.466     0.000     2.287     0.000   335.495    56.722    11.385    16.868     5.903    11.332    14.998     0.038     0.409   118.860    14.427     0.000     0.000     0.000     0.000     0.000     0.000    10.179    51.060    33.328    14.449    -5.599     9.544     2.482   -24.647   -18.450    23.825   173.124    50.704     0.739     0.096     0.041     0.184     0.173     0.014     0.000     0.003     0.000     0.432    18.318     8.441     0.137    21.768     4.064     6.974 .00000E+00 .00000E+00 0.275E+00 0.000E+00 0.000E+00 0.000E+00 0.000E+00 0.321E+03 0.243E+02 0.173E+00     0.000     2.287
SOYB  217 001110001  111    0 18.0.21178E+01  1021.167   118.444   115.291     0.000  1061.833   684.190   242.360   286.848     0.046     0.046     0.002     0.016     0.000     0.000     1.000  1000.011    12.672    12.672     0.000     1.616     0.000   333.902    56.824    11.381    16.868     5.894    11.261    14.999     0.031     0.339   118.860    14.427     0.000     0.000     0.000     0.000     0.000     0.000    10.180    52.416    35.723    14.464    -5.030     9.357     2.484   -23.335   -17.276    22.207   171.055    49.293     0.652     0.085     0.037     0.184     0.101     0.012     0.000     0.003     0.000     0.000    18.029    10.192     0.243    21.122     3.994     6.744 .00000E+00 .00000E+00 0.275E+00 0.000E+00 0.000E+00 0.000E+00 0.000E+00 0.320E+03 0.211E+02 0.101E+00     0.000     1.616
CORN  218 001120001  112    0 18.0.42185E+01  1008.383   106.056   103.005     0.000  1061.833   678.601   246.911   287.107     0.047     0.047     0.002     0.017     0.000     0.000     1.000  1000.013    11.194    11.194     0.000     4.558     0.000   326.683    56.507    11.418    16.930     5.906    11.390    14.998     0.069     0.525   118.860    14.427     0.000     0.000     0.000     0.000     0.000     0.000    10.053    50.004    33.455    14.510    -5.573     9.512     2.493   -24.420   -18.247    24.617   172.081    50.464     1.442     0.188     0.081     0.159     0.307     0.012     0.000     0.002     0.000     0.447    17.982     8.271     0.137    21.671     4.067     6.949 .00000E+00 .00000E+00 0.390E+00 0.000E+00 0.000E+00 0.000E+00 0.000E+00 0.311E+03 0.233E+02 0.307E+00     0.000     4.558
CORN  219 001120002  112    0 18.0.62034E+01  1008.383   106.056   103.005     0.000  1061.833   678.558   247.020   287.107     0.048     0.048     0.002     0.018     0.000     0.000     1.000  1000.013    11.200    11.200     0.000     1.984     0.000   326.733    56.505    11.418    16.930     5.906    11.390    14.998     0.034     0.289   118.860    14.427     0.000     0.000     0.000     0.000     0.000     0.000    10.053    49.897    33.601    14.520    -5.555     9.529     2.495   -24.468   -18.290    24.637   172.567    50.527     0.721     0.094     0.040     0.159     0.136     0.013     0.000     0.002     0.000     0.446    17.982     8.174     0.137    21.700     4.067     6.960 .00000E+00 .00000E+00 0.390E+00 0.000E+00 0.000E+00 0.000E+00 0.000E+00 0.314E+03 0.233E+02 0.136E+00     0.000     1.984
SOYB  220 001130001  113    0 18.0.22653E+01  1021.167   118.444   115.291     0.000  1061.833   684.201   242.256   286.848     0.045     0.045     0.002     0.015     0.000     0.000     1.000  1000.011    12.634    12.634     0.000     4.453     0.000   333.884    56.826    11.381    16.868     5.894    11.261    14.999     0.076     0.770   118.860    14.427     0.000     0.000     0.000     0.000     0.000     0.000    10.180    52.462    35.533    14.449    -5.054     9.340     2.481   -23.299   -17.243    22.174   170.516    49.243     1.590     0.206     0.091     0.183     0.273     0.011     0.000     0.003     0.000     0.000    18.029    10.265     0.243    21.098     3.993     6.735 .00000E+00 .00000E+00 0.275E+00 0.000E+00 0.000E+00 0.000E+00 0.000E+00 0.317E+03 0.210E+02 0.273E+00     0.000     4.453
SOYB  221 001130002  113    0 18.0.37153E+01  1021.167   118.444   115.291     0.000  1061.833   684.192   242.350   286.848     0.046     0.045     0.002     0.015     0.000     0.000     1.000  1000.011    12.665    12.665     0.000     1.936     0.000   333.899    56.824    11.381    16.868     5.894    11.261    14.999     0.037     0.475   118.860    14.427     0.000     0.000     0.000     0.000     0.000     0.000    10.180    52.418    35.699    14.462    -5.033     9.354     2.484   -23.331   -17.272    22.203   170.988    49.288     0.794     0.103     0.046     0.184     0.121     0.012     0.000     0.003     0.000     0.000    18.029    10.200     0.243    21.119     3.994     6.743 .00000E+00 .00000E+00 0.275E+00 0.000E+00 0.000E+00 0.000E+00 0.000E+00 0.319E+03 0.211E+02 0.121E+00     0.000     1.936
CORN  222 001140001  114    0 18.0.20587E+00  1021.167   118.444   115.291     0.000  1061.833   692.970   260.348   304.736   295.857   293.640    14.682   114.383     0.000     0.000     1.007  1264.280    17.669    17.670     0.000    11.404   164.547   193.621    58.668    11.381    16.868     5.894    10.709    14.999     0.727     4.367   118.860    14.427     0.000     0.000     0.000     0.000     0.000     0.000    10.180    49.633    36.098     5.848     0.490     9.343     1.014   -26.710   -19.889     6.225   181.553    52.264     3.341     0.473     0.270     0.230     0.550    24.336    11.051     0.003     0.000     0.415    18.318     6.117     0.137    22.509     4.076     7.249 .00000E+00 .00000E+00 0.275E+00 0.000E+00 0.000E+00 0.000E+00 0.000E+00 0.000E+00 0.000E+00 0.550E+00     0.000    11.404
SOYB  223 001150001  115    0 18.0.35945E-01  1021.167   118.444   115.171     0.000  1061.833   676.008   245.499   287.686     0.016     0.016     0.001     0.000     0.000     0.000     0.772  1000.000    14.871    14.871     0.000     1.316     0.000   342.100    56.825    11.385    16.868     5.903    11.348    14.998     0.036     0.412   118.860    14.427     0.000     0.000     0.000     0.000     0.000     0.000    10.179    53.653    33.121    33.383   -18.596     8.936     5.721   -20.412   -16.379    44.179   169.246    48.462     0.699     0.091     0.038     0.192     0.065     0.005     0.000     0.003     0.000     0.000    18.029    11.352     0.243    20.727     3.973     6.597 .00000E+00 .00000E+00 0.275E+00 0.000E+00 0.000E+00 0.000E+00 0.000E+00 0.326E+03 0.184E+02 0.649E-01     0.000     1.316
SOYB  224 001150002  115    0 18.0.37646E-01  1021.167   118.444   115.171     0.000  1061.833   676.004   245.389   287.686     0.016     0.016     0.001     0.000     0.000     0.000     0.769  1000.000    14.843    14.843     0.000     3.051     0.000   342.093    56.822    11.385    16.868     5.903    11.348    14.998     0.082     0.719   118.860    14.427     0.000     0.000     0.000     0.000     0.000     0.000    10.179    53.669    33.050    33.372   -18.604     8.928     5.719   -20.401   -16.369    44.109   169.057    48.443     1.409     0.184     0.077     0.191     0.149     0.005     0.000     0.003     0.000     0.000    18.029    11.380     0.243    20.718     3.973     6.594 .00000E+00 .00000E+00 0.275E+00 0.000E+00 0.000E+00 0.000E+00 0.000E+00 0.324E+03 0.184E+02 0.149E+00     0.000     3.051
SOYB  225 001150003  115    0 18.0.46812E-01  1021.167   118.444   115.171     0.000  1061.833   677.597   241.988   287.685   308.704   307.222    15.361   119.481     0.000     0.000     1.010  1276.499    14.305    14.305     0.000    17.451   172.352   204.109    56.915    11.385    16.868     5.903    11.344    14.998     0.564     3.111   118.860    14.427     0.000     0.000     0.000     0.000     0.000     0.000    10.179    52.745    30.954    33.173   -18.757     8.709     5.685   -19.498   -15.554    41.973   159.458    47.461     5.896     0.770     0.325     0.181     0.552    26.057    12.826     0.003     0.000     0.000    18.029    12.614     0.243    20.252     3.975     6.421 .00000E+00 .00000E+00 0.275E+00 0.000E+00 0.000E+00 0.000E+00 0.000E+00 0.000E+00 0.000E+00 0.552E+00     0.000    17.451
CORN  226 001160001  116    0 18.0.22307E+00  1021.167   118.444   115.171     0.000  1061.833   682.607   245.166   287.175     0.046     0.045     0.002     0.015     0.000     0.000     1.000  1000.011    12.460    12.461     0.000     4.513     0.000   335.457    56.727    11.385    16.868     5.903    11.332    14.998     0.077     0.553   118.860    14.427     0.000     0.000     0.000     0.000     0.000     0.000    10.179    51.192    33.208    14.440    -5.613     9.528     2.481   -24.602   -18.409    23.806   172.727    50.645     1.416     0.185     0.078     0.184     0.338     0.014     0.000     0.003     0.000     0.433    18.318     8.532     0.137    21.740     4.064     6.963 .00000E+00 .00000E+00 0.275E+00 0.000E+00 0.000E+00 0.000E+00 0.000E+00 0.318E+03 0.242E+02 0.338E+00     0.000     4.513
CORN  227 001160002  116    0 18.0.25049E+00  1021.167   118.444   115.171     0.000  1061.833   682.569   245.270   287.175     0.046     0.046     0.002     0.016     0.000     0.000     1.000  1000.011    12.474    12.474     0.000     1.964     0.000   335.502    56.722    11.385    16.868     5.903    11.332    14.998     0.034     0.348   118.860    14.427     0.000     0.000     0.000     0.000     0.000     0.000    10.179    51.041    33.344    14.450    -5.597     9.546     2.483   -24.654   -18.456    23.827   173.181    50.712     0.715     0.093     0.040     0.184     0.149     0.014     0.000     0.003     0.000     0.432    18.318     8.428     0.137    21.772     4.064     6.975 .00000E+00 .00000E+00 0.275E+00 0.000E+00 0.000E+00 0.000E+00 0.000E+00 0.321E+03 0.243E+02 0.149E+00     0.000     1.964
SOYB  228 001170001  117    0 18.0.24981E+00  1021.167   118.444   115.171     0.000  1061.833   684.211   242.271   286.848     0.046     0.046     0.002     0.016     0.000     0.000     1.000  1000.011    12.059    12.059     0.000     1.943     0.000   333.880    56.703    11.385    16.868     5.903    11.353    14.998     0.034     0.325   118.860    14.427     0.000     0.000     0.000     0.000     0.000     0.000    10.179    52.448    35.550    14.571    -5.130     9.347     2.502   -23.278   -17.226    22.547   170.632    49.246     0.696     0.090     0.040     0.166     0.124     0.012     0.000     0.003     0.000     0.000    18.029    10.262     0.243    21.099     3.993     6.735 .00000E+00 .00000E+00 0.275E+00 0.000E+00 0.000E+00 0.000E+00 0.000E+00 0.320E+03 0.211E+02 0.124E+00     0.000     1.943
SOYB  229 001170002  117    0 18.0.15725E+00  1021.167   118.444   115.171     0.000  1061.833   684.265   242.179   286.848     0.045     0.045     0.002     0.015     0.000     0.000     1.000  1000.011    12.038    12.039     0.000     4.469     0.000   333.820    56.711    11.385    16.868     5.903    11.353    14.998     0.074     0.681   118.860    14.427     0.000     0.000     0.000     0.000     0.000     0.000    10.179    52.494    35.381    14.559    -5.150     9.334     2.500   -23.242   -17.194    22.517   170.148    49.198     1.346     0.175     0.076     0.166     0.280     0.012     0.000     0.003     0.000     0.000    18.029    10.330     0.243    21.076     3.993     6.727 .00000E+00 .00000E+00 0.275E+00 0.000E+00 0.000E+00 0.000E+00 0.000E+00 0.317E+03 0.211E+02 0.280E+00     0.000     4.469
CORN  230 001180001  118    0 18.0.51082E+00  1021.167   118.444   115.171     0.000  1061.833   682.563   245.283   287.175     0.047     0.046     0.002     0.016     0.000     0.000     1.000  1000.011    12.482    12.482     0.000     1.640     0.000   335.509    56.722    11.385    16.868     5.903    11.332    14.998     0.032     0.316   118.860    14.427     0.000     0.000     0.000     0.000     0.000     0.000    10.179    51.030    33.362    14.451    -5.595     9.547     2.483   -24.660   -18.462    23.830   173.248    50.721     0.670     0.087     0.037     0.184     0.125     0.015     0.000     0.003     0.000     0.432    18.318     8.415     0.137    21.776     4.064     6.977 .00000E+00 .00000E+00 0.275E+00 0.000E+00 0.000E+00 0.000E+00 0.000E+00 0.321E+03 0.243E+02 0.125E+00     0.000     1.640
SOYB  231 001190001  119    0 18.0.33506E+01  1021.167   118.444   115.206     0.000  1061.833   684.218   242.288   286.848     0.046     0.046     0.002     0.016     0.000     0.000     1.000  1000.011    12.101    12.101     0.000     1.943     0.000   333.873    56.732    11.386    16.869     5.902    11.341    14.999     0.036     0.371   118.860    14.427     0.000     0.000     0.000     0.000     0.000     0.000    10.179    52.441    35.578    14.554    -5.115     9.348     2.499   -23.286   -17.233    22.496   170.687    49.252     0.758     0.098     0.044     0.167     0.124     0.012     0.000     0.003     0.000     0.000    18.029    10.253     0.243    21.102     3.993     6.736 .00000E+00 .00000E+00 0.275E+00 0.000E+00 0.000E+00 0.000E+00 0.000E+00 0.320E+03 0.211E+02 0.124E+00     0.000     1.943
SOYB  232 001190002  119    0 18.0.15573E+01  1021.167   118.444   115.206     0.000  1061.833   684.233   242.195   286.848     0.045     0.045     0.002     0.015     0.000     0.000     1.000  1000.011    12.065    12.065     0.000     4.470     0.000   333.852    56.731    11.386    16.869     5.902    11.341    14.999     0.076     0.652   118.860    14.427     0.000     0.000     0.000     0.000     0.000     0.000    10.179    52.489    35.404    14.543    -5.137     9.334     2.497   -23.251   -17.201    22.468   170.202    49.205     1.521     0.197     0.088     0.166     0.279     0.012     0.000     0.003     0.000     0.000    18.029    10.321     0.243    21.080     3.993     6.728 .00000E+00 .00000E+00 0.275E+00 0.000E+00 0.000E+00 0.411E+04 0.223E+06 0.317E+03 0.211E+02 0.279E+00     0.000     4.470
